
---------- Begin Simulation Statistics ----------
sim_seconds                                  0.000082                       # Number of seconds simulated
sim_ticks                                    82143500                       # Number of ticks simulated
final_tick                                   82143500                       # Number of ticks from beginning of simulation (restored from checkpoints and never reset)
sim_freq                                 1000000000000                       # Frequency of simulated ticks
host_inst_rate                                 179000                       # Simulator instruction rate (inst/s)
host_op_rate                                   182812                       # Simulator op (including micro ops) rate (op/s)
host_tick_rate                               25373670                       # Simulator tick rate (ticks/s)
host_mem_usage                                 664604                       # Number of bytes of host memory used
host_seconds                                     3.24                       # Real time elapsed on the host
sim_insts                                      579480                       # Number of instructions simulated
sim_ops                                        591823                       # Number of ops (including micro ops) simulated
system.voltage_domain.voltage                       1                       # Voltage in Volts
system.clk_domain.clock                          1000                       # Clock period in ticks
system.mem_ctrls.bytes_read::cpu0.inst          32896                       # Number of bytes read from this memory
system.mem_ctrls.bytes_read::cpu0.data          11008                       # Number of bytes read from this memory
system.mem_ctrls.bytes_read::cpu1.inst            896                       # Number of bytes read from this memory
system.mem_ctrls.bytes_read::cpu1.data            320                       # Number of bytes read from this memory
system.mem_ctrls.bytes_read::cpu2.inst            192                       # Number of bytes read from this memory
system.mem_ctrls.bytes_read::cpu2.data            256                       # Number of bytes read from this memory
system.mem_ctrls.bytes_read::cpu3.inst            448                       # Number of bytes read from this memory
system.mem_ctrls.bytes_read::cpu3.data            256                       # Number of bytes read from this memory
system.mem_ctrls.bytes_read::l2.prefetcher        30912                       # Number of bytes read from this memory
system.mem_ctrls.bytes_read::total              77184                       # Number of bytes read from this memory
system.mem_ctrls.bytes_inst_read::cpu0.inst        32896                       # Number of instructions bytes read from this memory
system.mem_ctrls.bytes_inst_read::cpu1.inst          896                       # Number of instructions bytes read from this memory
system.mem_ctrls.bytes_inst_read::cpu2.inst          192                       # Number of instructions bytes read from this memory
system.mem_ctrls.bytes_inst_read::cpu3.inst          448                       # Number of instructions bytes read from this memory
system.mem_ctrls.bytes_inst_read::total         34432                       # Number of instructions bytes read from this memory
system.mem_ctrls.num_reads::cpu0.inst             514                       # Number of read requests responded to by this memory
system.mem_ctrls.num_reads::cpu0.data             172                       # Number of read requests responded to by this memory
system.mem_ctrls.num_reads::cpu1.inst              14                       # Number of read requests responded to by this memory
system.mem_ctrls.num_reads::cpu1.data               5                       # Number of read requests responded to by this memory
system.mem_ctrls.num_reads::cpu2.inst               3                       # Number of read requests responded to by this memory
system.mem_ctrls.num_reads::cpu2.data               4                       # Number of read requests responded to by this memory
system.mem_ctrls.num_reads::cpu3.inst               7                       # Number of read requests responded to by this memory
system.mem_ctrls.num_reads::cpu3.data               4                       # Number of read requests responded to by this memory
system.mem_ctrls.num_reads::l2.prefetcher          483                       # Number of read requests responded to by this memory
system.mem_ctrls.num_reads::total                1206                       # Number of read requests responded to by this memory
system.mem_ctrls.bw_read::cpu0.inst         400469909                       # Total read bandwidth from this memory (bytes/s)
system.mem_ctrls.bw_read::cpu0.data         134009386                       # Total read bandwidth from this memory (bytes/s)
system.mem_ctrls.bw_read::cpu1.inst          10907741                       # Total read bandwidth from this memory (bytes/s)
system.mem_ctrls.bw_read::cpu1.data           3895622                       # Total read bandwidth from this memory (bytes/s)
system.mem_ctrls.bw_read::cpu2.inst           2337373                       # Total read bandwidth from this memory (bytes/s)
system.mem_ctrls.bw_read::cpu2.data           3116497                       # Total read bandwidth from this memory (bytes/s)
system.mem_ctrls.bw_read::cpu3.inst           5453870                       # Total read bandwidth from this memory (bytes/s)
system.mem_ctrls.bw_read::cpu3.data           3116497                       # Total read bandwidth from this memory (bytes/s)
system.mem_ctrls.bw_read::l2.prefetcher     376317055                       # Total read bandwidth from this memory (bytes/s)
system.mem_ctrls.bw_read::total             939623951                       # Total read bandwidth from this memory (bytes/s)
system.mem_ctrls.bw_inst_read::cpu0.inst    400469909                       # Instruction read bandwidth from this memory (bytes/s)
system.mem_ctrls.bw_inst_read::cpu1.inst     10907741                       # Instruction read bandwidth from this memory (bytes/s)
system.mem_ctrls.bw_inst_read::cpu2.inst      2337373                       # Instruction read bandwidth from this memory (bytes/s)
system.mem_ctrls.bw_inst_read::cpu3.inst      5453870                       # Instruction read bandwidth from this memory (bytes/s)
system.mem_ctrls.bw_inst_read::total        419168893                       # Instruction read bandwidth from this memory (bytes/s)
system.mem_ctrls.bw_total::cpu0.inst        400469909                       # Total bandwidth to/from this memory (bytes/s)
system.mem_ctrls.bw_total::cpu0.data        134009386                       # Total bandwidth to/from this memory (bytes/s)
system.mem_ctrls.bw_total::cpu1.inst         10907741                       # Total bandwidth to/from this memory (bytes/s)
system.mem_ctrls.bw_total::cpu1.data          3895622                       # Total bandwidth to/from this memory (bytes/s)
system.mem_ctrls.bw_total::cpu2.inst          2337373                       # Total bandwidth to/from this memory (bytes/s)
system.mem_ctrls.bw_total::cpu2.data          3116497                       # Total bandwidth to/from this memory (bytes/s)
system.mem_ctrls.bw_total::cpu3.inst          5453870                       # Total bandwidth to/from this memory (bytes/s)
system.mem_ctrls.bw_total::cpu3.data          3116497                       # Total bandwidth to/from this memory (bytes/s)
system.mem_ctrls.bw_total::l2.prefetcher    376317055                       # Total bandwidth to/from this memory (bytes/s)
system.mem_ctrls.bw_total::total            939623951                       # Total bandwidth to/from this memory (bytes/s)
system.mem_ctrls.readReqs                        1206                       # Number of read requests accepted
system.mem_ctrls.writeReqs                          0                       # Number of write requests accepted
system.mem_ctrls.readBursts                      1206                       # Number of DRAM read bursts, including those serviced by the write queue
system.mem_ctrls.writeBursts                        0                       # Number of DRAM write bursts, including those merged in the write queue
system.mem_ctrls.bytesReadDRAM                  77184                       # Total number of bytes read from DRAM
system.mem_ctrls.bytesReadWrQ                       0                       # Total number of bytes read from write queue
system.mem_ctrls.bytesWritten                       0                       # Total number of bytes written to DRAM
system.mem_ctrls.bytesReadSys                   77184                       # Total read bytes from the system interface side
system.mem_ctrls.bytesWrittenSys                    0                       # Total written bytes from the system interface side
system.mem_ctrls.servicedByWrQ                      0                       # Number of DRAM read bursts serviced by the write queue
system.mem_ctrls.mergedWrBursts                     0                       # Number of DRAM write bursts merged with an existing one
system.mem_ctrls.neitherReadNorWriteReqs            7                       # Number of requests that are neither read nor write
system.mem_ctrls.perBankRdBursts::0               125                       # Per bank write bursts
system.mem_ctrls.perBankRdBursts::1               123                       # Per bank write bursts
system.mem_ctrls.perBankRdBursts::2               135                       # Per bank write bursts
system.mem_ctrls.perBankRdBursts::3               196                       # Per bank write bursts
system.mem_ctrls.perBankRdBursts::4               163                       # Per bank write bursts
system.mem_ctrls.perBankRdBursts::5               148                       # Per bank write bursts
system.mem_ctrls.perBankRdBursts::6               118                       # Per bank write bursts
system.mem_ctrls.perBankRdBursts::7                29                       # Per bank write bursts
system.mem_ctrls.perBankRdBursts::8                16                       # Per bank write bursts
system.mem_ctrls.perBankRdBursts::9                 8                       # Per bank write bursts
system.mem_ctrls.perBankRdBursts::10                0                       # Per bank write bursts
system.mem_ctrls.perBankRdBursts::11               13                       # Per bank write bursts
system.mem_ctrls.perBankRdBursts::12                5                       # Per bank write bursts
system.mem_ctrls.perBankRdBursts::13               34                       # Per bank write bursts
system.mem_ctrls.perBankRdBursts::14               38                       # Per bank write bursts
system.mem_ctrls.perBankRdBursts::15               55                       # Per bank write bursts
system.mem_ctrls.perBankWrBursts::0                 0                       # Per bank write bursts
system.mem_ctrls.perBankWrBursts::1                 0                       # Per bank write bursts
system.mem_ctrls.perBankWrBursts::2                 0                       # Per bank write bursts
system.mem_ctrls.perBankWrBursts::3                 0                       # Per bank write bursts
system.mem_ctrls.perBankWrBursts::4                 0                       # Per bank write bursts
system.mem_ctrls.perBankWrBursts::5                 0                       # Per bank write bursts
system.mem_ctrls.perBankWrBursts::6                 0                       # Per bank write bursts
system.mem_ctrls.perBankWrBursts::7                 0                       # Per bank write bursts
system.mem_ctrls.perBankWrBursts::8                 0                       # Per bank write bursts
system.mem_ctrls.perBankWrBursts::9                 0                       # Per bank write bursts
system.mem_ctrls.perBankWrBursts::10                0                       # Per bank write bursts
system.mem_ctrls.perBankWrBursts::11                0                       # Per bank write bursts
system.mem_ctrls.perBankWrBursts::12                0                       # Per bank write bursts
system.mem_ctrls.perBankWrBursts::13                0                       # Per bank write bursts
system.mem_ctrls.perBankWrBursts::14                0                       # Per bank write bursts
system.mem_ctrls.perBankWrBursts::15                0                       # Per bank write bursts
system.mem_ctrls.numRdRetry                         0                       # Number of times read queue was full causing retry
system.mem_ctrls.numWrRetry                         0                       # Number of times write queue was full causing retry
system.mem_ctrls.totGap                      82104500                       # Total gap between requests
system.mem_ctrls.readPktSize::0                     0                       # Read request sizes (log2)
system.mem_ctrls.readPktSize::1                     0                       # Read request sizes (log2)
system.mem_ctrls.readPktSize::2                     0                       # Read request sizes (log2)
system.mem_ctrls.readPktSize::3                     0                       # Read request sizes (log2)
system.mem_ctrls.readPktSize::4                     0                       # Read request sizes (log2)
system.mem_ctrls.readPktSize::5                     0                       # Read request sizes (log2)
system.mem_ctrls.readPktSize::6                  1206                       # Read request sizes (log2)
system.mem_ctrls.writePktSize::0                    0                       # Write request sizes (log2)
system.mem_ctrls.writePktSize::1                    0                       # Write request sizes (log2)
system.mem_ctrls.writePktSize::2                    0                       # Write request sizes (log2)
system.mem_ctrls.writePktSize::3                    0                       # Write request sizes (log2)
system.mem_ctrls.writePktSize::4                    0                       # Write request sizes (log2)
system.mem_ctrls.writePktSize::5                    0                       # Write request sizes (log2)
system.mem_ctrls.writePktSize::6                    0                       # Write request sizes (log2)
system.mem_ctrls.rdQLenPdf::0                     466                       # What read queue length does an incoming req see
system.mem_ctrls.rdQLenPdf::1                     532                       # What read queue length does an incoming req see
system.mem_ctrls.rdQLenPdf::2                      91                       # What read queue length does an incoming req see
system.mem_ctrls.rdQLenPdf::3                      39                       # What read queue length does an incoming req see
system.mem_ctrls.rdQLenPdf::4                      24                       # What read queue length does an incoming req see
system.mem_ctrls.rdQLenPdf::5                      14                       # What read queue length does an incoming req see
system.mem_ctrls.rdQLenPdf::6                      12                       # What read queue length does an incoming req see
system.mem_ctrls.rdQLenPdf::7                      12                       # What read queue length does an incoming req see
system.mem_ctrls.rdQLenPdf::8                      12                       # What read queue length does an incoming req see
system.mem_ctrls.rdQLenPdf::9                       3                       # What read queue length does an incoming req see
system.mem_ctrls.rdQLenPdf::10                      1                       # What read queue length does an incoming req see
system.mem_ctrls.rdQLenPdf::11                      0                       # What read queue length does an incoming req see
system.mem_ctrls.rdQLenPdf::12                      0                       # What read queue length does an incoming req see
system.mem_ctrls.rdQLenPdf::13                      0                       # What read queue length does an incoming req see
system.mem_ctrls.rdQLenPdf::14                      0                       # What read queue length does an incoming req see
system.mem_ctrls.rdQLenPdf::15                      0                       # What read queue length does an incoming req see
system.mem_ctrls.rdQLenPdf::16                      0                       # What read queue length does an incoming req see
system.mem_ctrls.rdQLenPdf::17                      0                       # What read queue length does an incoming req see
system.mem_ctrls.rdQLenPdf::18                      0                       # What read queue length does an incoming req see
system.mem_ctrls.rdQLenPdf::19                      0                       # What read queue length does an incoming req see
system.mem_ctrls.rdQLenPdf::20                      0                       # What read queue length does an incoming req see
system.mem_ctrls.rdQLenPdf::21                      0                       # What read queue length does an incoming req see
system.mem_ctrls.rdQLenPdf::22                      0                       # What read queue length does an incoming req see
system.mem_ctrls.rdQLenPdf::23                      0                       # What read queue length does an incoming req see
system.mem_ctrls.rdQLenPdf::24                      0                       # What read queue length does an incoming req see
system.mem_ctrls.rdQLenPdf::25                      0                       # What read queue length does an incoming req see
system.mem_ctrls.rdQLenPdf::26                      0                       # What read queue length does an incoming req see
system.mem_ctrls.rdQLenPdf::27                      0                       # What read queue length does an incoming req see
system.mem_ctrls.rdQLenPdf::28                      0                       # What read queue length does an incoming req see
system.mem_ctrls.rdQLenPdf::29                      0                       # What read queue length does an incoming req see
system.mem_ctrls.rdQLenPdf::30                      0                       # What read queue length does an incoming req see
system.mem_ctrls.rdQLenPdf::31                      0                       # What read queue length does an incoming req see
system.mem_ctrls.wrQLenPdf::0                       0                       # What write queue length does an incoming req see
system.mem_ctrls.wrQLenPdf::1                       0                       # What write queue length does an incoming req see
system.mem_ctrls.wrQLenPdf::2                       0                       # What write queue length does an incoming req see
system.mem_ctrls.wrQLenPdf::3                       0                       # What write queue length does an incoming req see
system.mem_ctrls.wrQLenPdf::4                       0                       # What write queue length does an incoming req see
system.mem_ctrls.wrQLenPdf::5                       0                       # What write queue length does an incoming req see
system.mem_ctrls.wrQLenPdf::6                       0                       # What write queue length does an incoming req see
system.mem_ctrls.wrQLenPdf::7                       0                       # What write queue length does an incoming req see
system.mem_ctrls.wrQLenPdf::8                       0                       # What write queue length does an incoming req see
system.mem_ctrls.wrQLenPdf::9                       0                       # What write queue length does an incoming req see
system.mem_ctrls.wrQLenPdf::10                      0                       # What write queue length does an incoming req see
system.mem_ctrls.wrQLenPdf::11                      0                       # What write queue length does an incoming req see
system.mem_ctrls.wrQLenPdf::12                      0                       # What write queue length does an incoming req see
system.mem_ctrls.wrQLenPdf::13                      0                       # What write queue length does an incoming req see
system.mem_ctrls.wrQLenPdf::14                      0                       # What write queue length does an incoming req see
system.mem_ctrls.wrQLenPdf::15                      0                       # What write queue length does an incoming req see
system.mem_ctrls.wrQLenPdf::16                      0                       # What write queue length does an incoming req see
system.mem_ctrls.wrQLenPdf::17                      0                       # What write queue length does an incoming req see
system.mem_ctrls.wrQLenPdf::18                      0                       # What write queue length does an incoming req see
system.mem_ctrls.wrQLenPdf::19                      0                       # What write queue length does an incoming req see
system.mem_ctrls.wrQLenPdf::20                      0                       # What write queue length does an incoming req see
system.mem_ctrls.wrQLenPdf::21                      0                       # What write queue length does an incoming req see
system.mem_ctrls.wrQLenPdf::22                      0                       # What write queue length does an incoming req see
system.mem_ctrls.wrQLenPdf::23                      0                       # What write queue length does an incoming req see
system.mem_ctrls.wrQLenPdf::24                      0                       # What write queue length does an incoming req see
system.mem_ctrls.wrQLenPdf::25                      0                       # What write queue length does an incoming req see
system.mem_ctrls.wrQLenPdf::26                      0                       # What write queue length does an incoming req see
system.mem_ctrls.wrQLenPdf::27                      0                       # What write queue length does an incoming req see
system.mem_ctrls.wrQLenPdf::28                      0                       # What write queue length does an incoming req see
system.mem_ctrls.wrQLenPdf::29                      0                       # What write queue length does an incoming req see
system.mem_ctrls.wrQLenPdf::30                      0                       # What write queue length does an incoming req see
system.mem_ctrls.wrQLenPdf::31                      0                       # What write queue length does an incoming req see
system.mem_ctrls.wrQLenPdf::32                      0                       # What write queue length does an incoming req see
system.mem_ctrls.wrQLenPdf::33                      0                       # What write queue length does an incoming req see
system.mem_ctrls.wrQLenPdf::34                      0                       # What write queue length does an incoming req see
system.mem_ctrls.wrQLenPdf::35                      0                       # What write queue length does an incoming req see
system.mem_ctrls.wrQLenPdf::36                      0                       # What write queue length does an incoming req see
system.mem_ctrls.wrQLenPdf::37                      0                       # What write queue length does an incoming req see
system.mem_ctrls.wrQLenPdf::38                      0                       # What write queue length does an incoming req see
system.mem_ctrls.wrQLenPdf::39                      0                       # What write queue length does an incoming req see
system.mem_ctrls.wrQLenPdf::40                      0                       # What write queue length does an incoming req see
system.mem_ctrls.wrQLenPdf::41                      0                       # What write queue length does an incoming req see
system.mem_ctrls.wrQLenPdf::42                      0                       # What write queue length does an incoming req see
system.mem_ctrls.wrQLenPdf::43                      0                       # What write queue length does an incoming req see
system.mem_ctrls.wrQLenPdf::44                      0                       # What write queue length does an incoming req see
system.mem_ctrls.wrQLenPdf::45                      0                       # What write queue length does an incoming req see
system.mem_ctrls.wrQLenPdf::46                      0                       # What write queue length does an incoming req see
system.mem_ctrls.wrQLenPdf::47                      0                       # What write queue length does an incoming req see
system.mem_ctrls.wrQLenPdf::48                      0                       # What write queue length does an incoming req see
system.mem_ctrls.wrQLenPdf::49                      0                       # What write queue length does an incoming req see
system.mem_ctrls.wrQLenPdf::50                      0                       # What write queue length does an incoming req see
system.mem_ctrls.wrQLenPdf::51                      0                       # What write queue length does an incoming req see
system.mem_ctrls.wrQLenPdf::52                      0                       # What write queue length does an incoming req see
system.mem_ctrls.wrQLenPdf::53                      0                       # What write queue length does an incoming req see
system.mem_ctrls.wrQLenPdf::54                      0                       # What write queue length does an incoming req see
system.mem_ctrls.wrQLenPdf::55                      0                       # What write queue length does an incoming req see
system.mem_ctrls.wrQLenPdf::56                      0                       # What write queue length does an incoming req see
system.mem_ctrls.wrQLenPdf::57                      0                       # What write queue length does an incoming req see
system.mem_ctrls.wrQLenPdf::58                      0                       # What write queue length does an incoming req see
system.mem_ctrls.wrQLenPdf::59                      0                       # What write queue length does an incoming req see
system.mem_ctrls.wrQLenPdf::60                      0                       # What write queue length does an incoming req see
system.mem_ctrls.wrQLenPdf::61                      0                       # What write queue length does an incoming req see
system.mem_ctrls.wrQLenPdf::62                      0                       # What write queue length does an incoming req see
system.mem_ctrls.wrQLenPdf::63                      0                       # What write queue length does an incoming req see
system.mem_ctrls.bytesPerActivate::samples          218                       # Bytes accessed per row activation
system.mem_ctrls.bytesPerActivate::mean    346.128440                       # Bytes accessed per row activation
system.mem_ctrls.bytesPerActivate::gmean   194.948421                       # Bytes accessed per row activation
system.mem_ctrls.bytesPerActivate::stdev   365.015576                       # Bytes accessed per row activation
system.mem_ctrls.bytesPerActivate::0-127           80     36.70%     36.70% # Bytes accessed per row activation
system.mem_ctrls.bytesPerActivate::128-255           52     23.85%     60.55% # Bytes accessed per row activation
system.mem_ctrls.bytesPerActivate::256-383           19      8.72%     69.27% # Bytes accessed per row activation
system.mem_ctrls.bytesPerActivate::384-511            7      3.21%     72.48% # Bytes accessed per row activation
system.mem_ctrls.bytesPerActivate::512-639            7      3.21%     75.69% # Bytes accessed per row activation
system.mem_ctrls.bytesPerActivate::640-767            8      3.67%     79.36% # Bytes accessed per row activation
system.mem_ctrls.bytesPerActivate::768-895            3      1.38%     80.73% # Bytes accessed per row activation
system.mem_ctrls.bytesPerActivate::896-1023            5      2.29%     83.03% # Bytes accessed per row activation
system.mem_ctrls.bytesPerActivate::1024-1151           37     16.97%    100.00% # Bytes accessed per row activation
system.mem_ctrls.bytesPerActivate::total          218                       # Bytes accessed per row activation
system.mem_ctrls.totQLat                     14800024                       # Total ticks spent queuing
system.mem_ctrls.totMemAccLat                37412524                       # Total ticks spent from burst creation until serviced by the DRAM
system.mem_ctrls.totBusLat                    6030000                       # Total ticks spent in databus transfers
system.mem_ctrls.avgQLat                     12271.99                       # Average queueing delay per DRAM burst
system.mem_ctrls.avgBusLat                    5000.00                       # Average bus latency per DRAM burst
system.mem_ctrls.avgMemAccLat                31021.99                       # Average memory access latency per DRAM burst
system.mem_ctrls.avgRdBW                       939.62                       # Average DRAM read bandwidth in MiByte/s
system.mem_ctrls.avgWrBW                         0.00                       # Average achieved write bandwidth in MiByte/s
system.mem_ctrls.avgRdBWSys                    939.62                       # Average system read bandwidth in MiByte/s
system.mem_ctrls.avgWrBWSys                      0.00                       # Average system write bandwidth in MiByte/s
system.mem_ctrls.peakBW                      12800.00                       # Theoretical peak bandwidth in MiByte/s
system.mem_ctrls.busUtil                         7.34                       # Data bus utilization in percentage
system.mem_ctrls.busUtilRead                     7.34                       # Data bus utilization in percentage for reads
system.mem_ctrls.busUtilWrite                    0.00                       # Data bus utilization in percentage for writes
system.mem_ctrls.avgRdQLen                       1.51                       # Average read queue length when enqueuing
system.mem_ctrls.avgWrQLen                       0.00                       # Average write queue length when enqueuing
system.mem_ctrls.readRowHits                      979                       # Number of row buffer hits during reads
system.mem_ctrls.writeRowHits                       0                       # Number of row buffer hits during writes
system.mem_ctrls.readRowHitRate                 81.18                       # Row buffer hit rate for reads
system.mem_ctrls.writeRowHitRate                  nan                       # Row buffer hit rate for writes
system.mem_ctrls.avgGap                      68080.02                       # Average gap between requests
system.mem_ctrls.pageHitRate                    81.18                       # Row buffer hit rate, read and write combined
system.mem_ctrls_0.actEnergy                  1383480                       # Energy for activate commands per rank (pJ)
system.mem_ctrls_0.preEnergy                   754875                       # Energy for precharge commands per rank (pJ)
system.mem_ctrls_0.readEnergy                 7909200                       # Energy for read commands per rank (pJ)
system.mem_ctrls_0.writeEnergy                      0                       # Energy for write commands per rank (pJ)
system.mem_ctrls_0.refreshEnergy              5085600                       # Energy for refresh commands per rank (pJ)
system.mem_ctrls_0.actBackEnergy             40593690                       # Energy for active background per rank (pJ)
system.mem_ctrls_0.preBackEnergy             11256750                       # Energy for precharge background per rank (pJ)
system.mem_ctrls_0.totalEnergy               66983595                       # Total energy per rank (pJ)
system.mem_ctrls_0.averagePower            857.568390                       # Core power per rank (mW)
system.mem_ctrls_0.memoryStateTime::IDLE     19135250                       # Time in different power states
system.mem_ctrls_0.memoryStateTime::REF       2600000                       # Time in different power states
system.mem_ctrls_0.memoryStateTime::PRE_PDN            0                       # Time in different power states
system.mem_ctrls_0.memoryStateTime::ACT      57009750                       # Time in different power states
system.mem_ctrls_0.memoryStateTime::ACT_PDN            0                       # Time in different power states
system.mem_ctrls_1.actEnergy                   189000                       # Energy for activate commands per rank (pJ)
system.mem_ctrls_1.preEnergy                   103125                       # Energy for precharge commands per rank (pJ)
system.mem_ctrls_1.readEnergy                 1037400                       # Energy for read commands per rank (pJ)
system.mem_ctrls_1.writeEnergy                      0                       # Energy for write commands per rank (pJ)
system.mem_ctrls_1.refreshEnergy              5085600                       # Energy for refresh commands per rank (pJ)
system.mem_ctrls_1.actBackEnergy             24407685                       # Energy for active background per rank (pJ)
system.mem_ctrls_1.preBackEnergy             25455000                       # Energy for precharge background per rank (pJ)
system.mem_ctrls_1.totalEnergy               56277810                       # Total energy per rank (pJ)
system.mem_ctrls_1.averagePower            720.505833                       # Core power per rank (mW)
system.mem_ctrls_1.memoryStateTime::IDLE     43591500                       # Time in different power states
system.mem_ctrls_1.memoryStateTime::REF       2600000                       # Time in different power states
system.mem_ctrls_1.memoryStateTime::PRE_PDN            0                       # Time in different power states
system.mem_ctrls_1.memoryStateTime::ACT      33307000                       # Time in different power states
system.mem_ctrls_1.memoryStateTime::ACT_PDN            0                       # Time in different power states
system.cpu0.branchPred.lookups                  18471                       # Number of BP lookups
system.cpu0.branchPred.condPredicted            16314                       # Number of conditional branches predicted
system.cpu0.branchPred.condIncorrect             1568                       # Number of conditional branches incorrect
system.cpu0.branchPred.BTBLookups               13517                       # Number of BTB lookups
system.cpu0.branchPred.BTBHits                  12777                       # Number of BTB hits
system.cpu0.branchPred.BTBCorrect                   0                       # Number of correct BTB predictions (this stat may not work properly.
system.cpu0.branchPred.BTBHitPct            94.525412                       # BTB Hit Percentage
system.cpu0.branchPred.usedRAS                    711                       # Number of times the RAS was used to get a target.
system.cpu0.branchPred.RASInCorrect                 7                       # Number of incorrect RAS predictions.
system.cpu_voltage_domain.voltage                   1                       # Voltage in Volts
system.cpu_clk_domain.clock                       500                       # Clock period in ticks
system.cpu0.dstage2_mmu.stage2_tlb.walker.walks            0                       # Table walker walks requested
system.cpu0.dstage2_mmu.stage2_tlb.walker.walkRequestOrigin_Requested::Data            0                       # Table walker requests started/completed, data/inst
system.cpu0.dstage2_mmu.stage2_tlb.walker.walkRequestOrigin_Requested::Inst            0                       # Table walker requests started/completed, data/inst
system.cpu0.dstage2_mmu.stage2_tlb.walker.walkRequestOrigin_Requested::total            0                       # Table walker requests started/completed, data/inst
system.cpu0.dstage2_mmu.stage2_tlb.walker.walkRequestOrigin_Completed::Data            0                       # Table walker requests started/completed, data/inst
system.cpu0.dstage2_mmu.stage2_tlb.walker.walkRequestOrigin_Completed::Inst            0                       # Table walker requests started/completed, data/inst
system.cpu0.dstage2_mmu.stage2_tlb.walker.walkRequestOrigin_Completed::total            0                       # Table walker requests started/completed, data/inst
system.cpu0.dstage2_mmu.stage2_tlb.walker.walkRequestOrigin::total            0                       # Table walker requests started/completed, data/inst
system.cpu0.dstage2_mmu.stage2_tlb.inst_hits            0                       # ITB inst hits
system.cpu0.dstage2_mmu.stage2_tlb.inst_misses            0                       # ITB inst misses
system.cpu0.dstage2_mmu.stage2_tlb.read_hits            0                       # DTB read hits
system.cpu0.dstage2_mmu.stage2_tlb.read_misses            0                       # DTB read misses
system.cpu0.dstage2_mmu.stage2_tlb.write_hits            0                       # DTB write hits
system.cpu0.dstage2_mmu.stage2_tlb.write_misses            0                       # DTB write misses
system.cpu0.dstage2_mmu.stage2_tlb.flush_tlb            0                       # Number of times complete TLB was flushed
system.cpu0.dstage2_mmu.stage2_tlb.flush_tlb_mva            0                       # Number of times TLB was flushed by MVA
system.cpu0.dstage2_mmu.stage2_tlb.flush_tlb_mva_asid            0                       # Number of times TLB was flushed by MVA & ASID
system.cpu0.dstage2_mmu.stage2_tlb.flush_tlb_asid            0                       # Number of times TLB was flushed by ASID
system.cpu0.dstage2_mmu.stage2_tlb.flush_entries            0                       # Number of entries that have been flushed from TLB
system.cpu0.dstage2_mmu.stage2_tlb.align_faults            0                       # Number of TLB faults due to alignment restrictions
system.cpu0.dstage2_mmu.stage2_tlb.prefetch_faults            0                       # Number of TLB faults due to prefetch
system.cpu0.dstage2_mmu.stage2_tlb.domain_faults            0                       # Number of TLB faults due to domain restrictions
system.cpu0.dstage2_mmu.stage2_tlb.perms_faults            0                       # Number of TLB faults due to permissions restrictions
system.cpu0.dstage2_mmu.stage2_tlb.read_accesses            0                       # DTB read accesses
system.cpu0.dstage2_mmu.stage2_tlb.write_accesses            0                       # DTB write accesses
system.cpu0.dstage2_mmu.stage2_tlb.inst_accesses            0                       # ITB inst accesses
system.cpu0.dstage2_mmu.stage2_tlb.hits             0                       # DTB hits
system.cpu0.dstage2_mmu.stage2_tlb.misses            0                       # DTB misses
system.cpu0.dstage2_mmu.stage2_tlb.accesses            0                       # DTB accesses
system.cpu0.dtb.walker.walks                        0                       # Table walker walks requested
system.cpu0.dtb.walker.walkRequestOrigin_Requested::Data            0                       # Table walker requests started/completed, data/inst
system.cpu0.dtb.walker.walkRequestOrigin_Requested::Inst            0                       # Table walker requests started/completed, data/inst
system.cpu0.dtb.walker.walkRequestOrigin_Requested::total            0                       # Table walker requests started/completed, data/inst
system.cpu0.dtb.walker.walkRequestOrigin_Completed::Data            0                       # Table walker requests started/completed, data/inst
system.cpu0.dtb.walker.walkRequestOrigin_Completed::Inst            0                       # Table walker requests started/completed, data/inst
system.cpu0.dtb.walker.walkRequestOrigin_Completed::total            0                       # Table walker requests started/completed, data/inst
system.cpu0.dtb.walker.walkRequestOrigin::total            0                       # Table walker requests started/completed, data/inst
system.cpu0.dtb.inst_hits                           0                       # ITB inst hits
system.cpu0.dtb.inst_misses                         0                       # ITB inst misses
system.cpu0.dtb.read_hits                           0                       # DTB read hits
system.cpu0.dtb.read_misses                         0                       # DTB read misses
system.cpu0.dtb.write_hits                          0                       # DTB write hits
system.cpu0.dtb.write_misses                        0                       # DTB write misses
system.cpu0.dtb.flush_tlb                           0                       # Number of times complete TLB was flushed
system.cpu0.dtb.flush_tlb_mva                       0                       # Number of times TLB was flushed by MVA
system.cpu0.dtb.flush_tlb_mva_asid                  0                       # Number of times TLB was flushed by MVA & ASID
system.cpu0.dtb.flush_tlb_asid                      0                       # Number of times TLB was flushed by ASID
system.cpu0.dtb.flush_entries                       0                       # Number of entries that have been flushed from TLB
system.cpu0.dtb.align_faults                        0                       # Number of TLB faults due to alignment restrictions
system.cpu0.dtb.prefetch_faults                     0                       # Number of TLB faults due to prefetch
system.cpu0.dtb.domain_faults                       0                       # Number of TLB faults due to domain restrictions
system.cpu0.dtb.perms_faults                        0                       # Number of TLB faults due to permissions restrictions
system.cpu0.dtb.read_accesses                       0                       # DTB read accesses
system.cpu0.dtb.write_accesses                      0                       # DTB write accesses
system.cpu0.dtb.inst_accesses                       0                       # ITB inst accesses
system.cpu0.dtb.hits                                0                       # DTB hits
system.cpu0.dtb.misses                              0                       # DTB misses
system.cpu0.dtb.accesses                            0                       # DTB accesses
system.cpu0.istage2_mmu.stage2_tlb.walker.walks            0                       # Table walker walks requested
system.cpu0.istage2_mmu.stage2_tlb.walker.walkRequestOrigin_Requested::Data            0                       # Table walker requests started/completed, data/inst
system.cpu0.istage2_mmu.stage2_tlb.walker.walkRequestOrigin_Requested::Inst            0                       # Table walker requests started/completed, data/inst
system.cpu0.istage2_mmu.stage2_tlb.walker.walkRequestOrigin_Requested::total            0                       # Table walker requests started/completed, data/inst
system.cpu0.istage2_mmu.stage2_tlb.walker.walkRequestOrigin_Completed::Data            0                       # Table walker requests started/completed, data/inst
system.cpu0.istage2_mmu.stage2_tlb.walker.walkRequestOrigin_Completed::Inst            0                       # Table walker requests started/completed, data/inst
system.cpu0.istage2_mmu.stage2_tlb.walker.walkRequestOrigin_Completed::total            0                       # Table walker requests started/completed, data/inst
system.cpu0.istage2_mmu.stage2_tlb.walker.walkRequestOrigin::total            0                       # Table walker requests started/completed, data/inst
system.cpu0.istage2_mmu.stage2_tlb.inst_hits            0                       # ITB inst hits
system.cpu0.istage2_mmu.stage2_tlb.inst_misses            0                       # ITB inst misses
system.cpu0.istage2_mmu.stage2_tlb.read_hits            0                       # DTB read hits
system.cpu0.istage2_mmu.stage2_tlb.read_misses            0                       # DTB read misses
system.cpu0.istage2_mmu.stage2_tlb.write_hits            0                       # DTB write hits
system.cpu0.istage2_mmu.stage2_tlb.write_misses            0                       # DTB write misses
system.cpu0.istage2_mmu.stage2_tlb.flush_tlb            0                       # Number of times complete TLB was flushed
system.cpu0.istage2_mmu.stage2_tlb.flush_tlb_mva            0                       # Number of times TLB was flushed by MVA
system.cpu0.istage2_mmu.stage2_tlb.flush_tlb_mva_asid            0                       # Number of times TLB was flushed by MVA & ASID
system.cpu0.istage2_mmu.stage2_tlb.flush_tlb_asid            0                       # Number of times TLB was flushed by ASID
system.cpu0.istage2_mmu.stage2_tlb.flush_entries            0                       # Number of entries that have been flushed from TLB
system.cpu0.istage2_mmu.stage2_tlb.align_faults            0                       # Number of TLB faults due to alignment restrictions
system.cpu0.istage2_mmu.stage2_tlb.prefetch_faults            0                       # Number of TLB faults due to prefetch
system.cpu0.istage2_mmu.stage2_tlb.domain_faults            0                       # Number of TLB faults due to domain restrictions
system.cpu0.istage2_mmu.stage2_tlb.perms_faults            0                       # Number of TLB faults due to permissions restrictions
system.cpu0.istage2_mmu.stage2_tlb.read_accesses            0                       # DTB read accesses
system.cpu0.istage2_mmu.stage2_tlb.write_accesses            0                       # DTB write accesses
system.cpu0.istage2_mmu.stage2_tlb.inst_accesses            0                       # ITB inst accesses
system.cpu0.istage2_mmu.stage2_tlb.hits             0                       # DTB hits
system.cpu0.istage2_mmu.stage2_tlb.misses            0                       # DTB misses
system.cpu0.istage2_mmu.stage2_tlb.accesses            0                       # DTB accesses
system.cpu0.itb.walker.walks                        0                       # Table walker walks requested
system.cpu0.itb.walker.walkRequestOrigin_Requested::Data            0                       # Table walker requests started/completed, data/inst
system.cpu0.itb.walker.walkRequestOrigin_Requested::Inst            0                       # Table walker requests started/completed, data/inst
system.cpu0.itb.walker.walkRequestOrigin_Requested::total            0                       # Table walker requests started/completed, data/inst
system.cpu0.itb.walker.walkRequestOrigin_Completed::Data            0                       # Table walker requests started/completed, data/inst
system.cpu0.itb.walker.walkRequestOrigin_Completed::Inst            0                       # Table walker requests started/completed, data/inst
system.cpu0.itb.walker.walkRequestOrigin_Completed::total            0                       # Table walker requests started/completed, data/inst
system.cpu0.itb.walker.walkRequestOrigin::total            0                       # Table walker requests started/completed, data/inst
system.cpu0.itb.inst_hits                           0                       # ITB inst hits
system.cpu0.itb.inst_misses                         0                       # ITB inst misses
system.cpu0.itb.read_hits                           0                       # DTB read hits
system.cpu0.itb.read_misses                         0                       # DTB read misses
system.cpu0.itb.write_hits                          0                       # DTB write hits
system.cpu0.itb.write_misses                        0                       # DTB write misses
system.cpu0.itb.flush_tlb                           0                       # Number of times complete TLB was flushed
system.cpu0.itb.flush_tlb_mva                       0                       # Number of times TLB was flushed by MVA
system.cpu0.itb.flush_tlb_mva_asid                  0                       # Number of times TLB was flushed by MVA & ASID
system.cpu0.itb.flush_tlb_asid                      0                       # Number of times TLB was flushed by ASID
system.cpu0.itb.flush_entries                       0                       # Number of entries that have been flushed from TLB
system.cpu0.itb.align_faults                        0                       # Number of TLB faults due to alignment restrictions
system.cpu0.itb.prefetch_faults                     0                       # Number of TLB faults due to prefetch
system.cpu0.itb.domain_faults                       0                       # Number of TLB faults due to domain restrictions
system.cpu0.itb.perms_faults                        0                       # Number of TLB faults due to permissions restrictions
system.cpu0.itb.read_accesses                       0                       # DTB read accesses
system.cpu0.itb.write_accesses                      0                       # DTB write accesses
system.cpu0.itb.inst_accesses                       0                       # ITB inst accesses
system.cpu0.itb.hits                                0                       # DTB hits
system.cpu0.itb.misses                              0                       # DTB misses
system.cpu0.itb.accesses                            0                       # DTB accesses
system.cpu0.workload.num_syscalls                  59                       # Number of system calls
system.cpu0.numCycles                          164288                       # number of cpu cycles simulated
system.cpu0.numWorkItemsStarted                     0                       # number of work items this cpu started
system.cpu0.numWorkItemsCompleted                   0                       # number of work items this cpu completed
system.cpu0.fetch.icacheStallCycles             14601                       # Number of cycles fetch is stalled on an Icache miss
system.cpu0.fetch.Insts                        193840                       # Number of instructions fetch has processed
system.cpu0.fetch.Branches                      18471                       # Number of branches that fetch encountered
system.cpu0.fetch.predictedBranches             13488                       # Number of branches that fetch has predicted taken
system.cpu0.fetch.Cycles                       106521                       # Number of cycles fetch has run and was not squashing or blocked
system.cpu0.fetch.SquashCycles                   3201                       # Number of cycles fetch has spent squashing
system.cpu0.fetch.MiscStallCycles                 383                       # Number of cycles fetch has spent waiting on interrupts, or bad addresses, or out of MSHRs
system.cpu0.fetch.PendingTrapStallCycles          109                       # Number of stall cycles due to pending traps
system.cpu0.fetch.IcacheWaitRetryStallCycles          557                       # Number of stall cycles due to full MSHR
system.cpu0.fetch.CacheLines                    55492                       # Number of cache lines fetched
system.cpu0.fetch.IcacheSquashes                  354                       # Number of outstanding Icache misses that were squashed
system.cpu0.fetch.rateDist::samples            123771                       # Number of instructions fetched each cycle (Total)
system.cpu0.fetch.rateDist::mean             1.676483                       # Number of instructions fetched each cycle (Total)
system.cpu0.fetch.rateDist::stdev            1.239501                       # Number of instructions fetched each cycle (Total)
system.cpu0.fetch.rateDist::underflows              0      0.00%      0.00% # Number of instructions fetched each cycle (Total)
system.cpu0.fetch.rateDist::0                   28067     22.68%     22.68% # Number of instructions fetched each cycle (Total)
system.cpu0.fetch.rateDist::1                   37375     30.20%     52.87% # Number of instructions fetched each cycle (Total)
system.cpu0.fetch.rateDist::2                    4862      3.93%     56.80% # Number of instructions fetched each cycle (Total)
system.cpu0.fetch.rateDist::3                   53467     43.20%    100.00% # Number of instructions fetched each cycle (Total)
system.cpu0.fetch.rateDist::overflows               0      0.00%    100.00% # Number of instructions fetched each cycle (Total)
system.cpu0.fetch.rateDist::min_value               0                       # Number of instructions fetched each cycle (Total)
system.cpu0.fetch.rateDist::max_value               3                       # Number of instructions fetched each cycle (Total)
system.cpu0.fetch.rateDist::total              123771                       # Number of instructions fetched each cycle (Total)
system.cpu0.fetch.branchRate                 0.112431                       # Number of branch fetches per cycle
system.cpu0.fetch.rate                       1.179879                       # Number of inst fetches per cycle
system.cpu0.decode.IdleCycles                   14442                       # Number of cycles decode is idle
system.cpu0.decode.BlockedCycles                16656                       # Number of cycles decode is blocked
system.cpu0.decode.RunCycles                    89299                       # Number of cycles decode is running
system.cpu0.decode.UnblockCycles                 2092                       # Number of cycles decode is unblocking
system.cpu0.decode.SquashCycles                  1282                       # Number of cycles decode is squashing
system.cpu0.decode.BranchResolved                 868                       # Number of times decode resolved a branch
system.cpu0.decode.BranchMispred                  340                       # Number of times decode detected a branch misprediction
system.cpu0.decode.DecodedInsts                196481                       # Number of instructions handled by decode
system.cpu0.decode.SquashedInsts                 5721                       # Number of squashed instructions handled by decode
system.cpu0.rename.SquashCycles                  1282                       # Number of cycles rename is squashing
system.cpu0.rename.IdleCycles                   19326                       # Number of cycles rename is idle
system.cpu0.rename.BlockCycles                   2142                       # Number of cycles rename is blocking
system.cpu0.rename.serializeStallCycles          6703                       # count of cycles rename stalled for serializing inst
system.cpu0.rename.RunCycles                    86495                       # Number of cycles rename is running
system.cpu0.rename.UnblockCycles                 7823                       # Number of cycles rename is unblocking
system.cpu0.rename.RenamedInsts                191916                       # Number of instructions processed by rename
system.cpu0.rename.SquashedInsts                 1964                       # Number of squashed instructions processed by rename
system.cpu0.rename.ROBFullEvents                   73                       # Number of times rename has blocked due to ROB full
system.cpu0.rename.IQFullEvents                    10                       # Number of times rename has blocked due to IQ full
system.cpu0.rename.LQFullEvents                    11                       # Number of times rename has blocked due to LQ full
system.cpu0.rename.SQFullEvents                  6800                       # Number of times rename has blocked due to SQ full
system.cpu0.rename.RenamedOperands             235023                       # Number of destination operands rename has renamed
system.cpu0.rename.RenameLookups               947560                       # Number of register rename lookups that rename has made
system.cpu0.rename.int_rename_lookups          305045                       # Number of integer rename lookups
system.cpu0.rename.fp_rename_lookups               22                       # Number of floating rename lookups
system.cpu0.rename.CommittedMaps               221519                       # Number of HB maps that are committed
system.cpu0.rename.UndoneMaps                   13504                       # Number of HB maps that are undone due to squashing
system.cpu0.rename.serializingInsts               100                       # count of serializing insts renamed
system.cpu0.rename.tempSerializingInsts            98                       # count of temporary serializing insts renamed
system.cpu0.rename.skidInsts                     4419                       # count of insts added to the skid buffer
system.cpu0.memDep0.insertedLoads               39600                       # Number of loads inserted to the mem dependence unit.
system.cpu0.memDep0.insertedStores              15729                       # Number of stores inserted to the mem dependence unit.
system.cpu0.memDep0.conflictingLoads              231                       # Number of conflicting loads.
system.cpu0.memDep0.conflictingStores             115                       # Number of conflicting stores.
system.cpu0.iq.iqInstsAdded                    189771                       # Number of instructions added to the IQ (excludes non-spec)
system.cpu0.iq.iqNonSpecInstsAdded                232                       # Number of non-speculative instructions added to the IQ
system.cpu0.iq.iqInstsIssued                   186375                       # Number of instructions issued
system.cpu0.iq.iqSquashedInstsIssued              652                       # Number of squashed instructions issued
system.cpu0.iq.iqSquashedInstsExamined          10368                       # Number of squashed instructions iterated over during squash; mainly for profiling
system.cpu0.iq.iqSquashedOperandsExamined        26692                       # Number of squashed operands that are examined and possibly removed from graph
system.cpu0.iq.iqSquashedNonSpecRemoved            44                       # Number of squashed non-spec instructions that were removed
system.cpu0.iq.issued_per_cycle::samples       123771                       # Number of insts issued each cycle
system.cpu0.iq.issued_per_cycle::mean        1.505805                       # Number of insts issued each cycle
system.cpu0.iq.issued_per_cycle::stdev       1.284637                       # Number of insts issued each cycle
system.cpu0.iq.issued_per_cycle::underflows            0      0.00%      0.00% # Number of insts issued each cycle
system.cpu0.iq.issued_per_cycle::0              41646     33.65%     33.65% # Number of insts issued each cycle
system.cpu0.iq.issued_per_cycle::1              20921     16.90%     50.55% # Number of insts issued each cycle
system.cpu0.iq.issued_per_cycle::2              20122     16.26%     66.81% # Number of insts issued each cycle
system.cpu0.iq.issued_per_cycle::3              39121     31.61%     98.42% # Number of insts issued each cycle
system.cpu0.iq.issued_per_cycle::4               1958      1.58%    100.00% # Number of insts issued each cycle
system.cpu0.iq.issued_per_cycle::5                  3      0.00%    100.00% # Number of insts issued each cycle
system.cpu0.iq.issued_per_cycle::6                  0      0.00%    100.00% # Number of insts issued each cycle
system.cpu0.iq.issued_per_cycle::7                  0      0.00%    100.00% # Number of insts issued each cycle
system.cpu0.iq.issued_per_cycle::8                  0      0.00%    100.00% # Number of insts issued each cycle
system.cpu0.iq.issued_per_cycle::overflows            0      0.00%    100.00% # Number of insts issued each cycle
system.cpu0.iq.issued_per_cycle::min_value            0                       # Number of insts issued each cycle
system.cpu0.iq.issued_per_cycle::max_value            5                       # Number of insts issued each cycle
system.cpu0.iq.issued_per_cycle::total         123771                       # Number of insts issued each cycle
system.cpu0.iq.fu_full::No_OpClass                  0      0.00%      0.00% # attempts to use FU when none available
system.cpu0.iq.fu_full::IntAlu                   2936     10.29%     10.29% # attempts to use FU when none available
system.cpu0.iq.fu_full::IntMult                   496      1.74%     12.03% # attempts to use FU when none available
system.cpu0.iq.fu_full::IntDiv                      0      0.00%     12.03% # attempts to use FU when none available
system.cpu0.iq.fu_full::FloatAdd                    0      0.00%     12.03% # attempts to use FU when none available
system.cpu0.iq.fu_full::FloatCmp                    0      0.00%     12.03% # attempts to use FU when none available
system.cpu0.iq.fu_full::FloatCvt                    0      0.00%     12.03% # attempts to use FU when none available
system.cpu0.iq.fu_full::FloatMult                   0      0.00%     12.03% # attempts to use FU when none available
system.cpu0.iq.fu_full::FloatDiv                    0      0.00%     12.03% # attempts to use FU when none available
system.cpu0.iq.fu_full::FloatSqrt                   0      0.00%     12.03% # attempts to use FU when none available
system.cpu0.iq.fu_full::SimdAdd                     0      0.00%     12.03% # attempts to use FU when none available
system.cpu0.iq.fu_full::SimdAddAcc                  0      0.00%     12.03% # attempts to use FU when none available
system.cpu0.iq.fu_full::SimdAlu                     0      0.00%     12.03% # attempts to use FU when none available
system.cpu0.iq.fu_full::SimdCmp                     0      0.00%     12.03% # attempts to use FU when none available
system.cpu0.iq.fu_full::SimdCvt                     0      0.00%     12.03% # attempts to use FU when none available
system.cpu0.iq.fu_full::SimdMisc                    0      0.00%     12.03% # attempts to use FU when none available
system.cpu0.iq.fu_full::SimdMult                    0      0.00%     12.03% # attempts to use FU when none available
system.cpu0.iq.fu_full::SimdMultAcc                 0      0.00%     12.03% # attempts to use FU when none available
system.cpu0.iq.fu_full::SimdShift                   0      0.00%     12.03% # attempts to use FU when none available
system.cpu0.iq.fu_full::SimdShiftAcc                0      0.00%     12.03% # attempts to use FU when none available
system.cpu0.iq.fu_full::SimdSqrt                    0      0.00%     12.03% # attempts to use FU when none available
system.cpu0.iq.fu_full::SimdFloatAdd                0      0.00%     12.03% # attempts to use FU when none available
system.cpu0.iq.fu_full::SimdFloatAlu                0      0.00%     12.03% # attempts to use FU when none available
system.cpu0.iq.fu_full::SimdFloatCmp                0      0.00%     12.03% # attempts to use FU when none available
system.cpu0.iq.fu_full::SimdFloatCvt                0      0.00%     12.03% # attempts to use FU when none available
system.cpu0.iq.fu_full::SimdFloatDiv                0      0.00%     12.03% # attempts to use FU when none available
system.cpu0.iq.fu_full::SimdFloatMisc               0      0.00%     12.03% # attempts to use FU when none available
system.cpu0.iq.fu_full::SimdFloatMult               0      0.00%     12.03% # attempts to use FU when none available
system.cpu0.iq.fu_full::SimdFloatMultAcc            0      0.00%     12.03% # attempts to use FU when none available
system.cpu0.iq.fu_full::SimdFloatSqrt               0      0.00%     12.03% # attempts to use FU when none available
system.cpu0.iq.fu_full::MemRead                 18559     65.05%     77.08% # attempts to use FU when none available
system.cpu0.iq.fu_full::MemWrite                 6539     22.92%    100.00% # attempts to use FU when none available
system.cpu0.iq.fu_full::IprAccess                   0      0.00%    100.00% # attempts to use FU when none available
system.cpu0.iq.fu_full::InstPrefetch                0      0.00%    100.00% # attempts to use FU when none available
system.cpu0.iq.FU_type_0::No_OpClass                0      0.00%      0.00% # Type of FU issued
system.cpu0.iq.FU_type_0::IntAlu               105469     56.59%     56.59% # Type of FU issued
system.cpu0.iq.FU_type_0::IntMult               26716     14.33%     70.92% # Type of FU issued
system.cpu0.iq.FU_type_0::IntDiv                    0      0.00%     70.92% # Type of FU issued
system.cpu0.iq.FU_type_0::FloatAdd                  0      0.00%     70.92% # Type of FU issued
system.cpu0.iq.FU_type_0::FloatCmp                  0      0.00%     70.92% # Type of FU issued
system.cpu0.iq.FU_type_0::FloatCvt                  0      0.00%     70.92% # Type of FU issued
system.cpu0.iq.FU_type_0::FloatMult                 0      0.00%     70.92% # Type of FU issued
system.cpu0.iq.FU_type_0::FloatDiv                  0      0.00%     70.92% # Type of FU issued
system.cpu0.iq.FU_type_0::FloatSqrt                 0      0.00%     70.92% # Type of FU issued
system.cpu0.iq.FU_type_0::SimdAdd                   0      0.00%     70.92% # Type of FU issued
system.cpu0.iq.FU_type_0::SimdAddAcc                0      0.00%     70.92% # Type of FU issued
system.cpu0.iq.FU_type_0::SimdAlu                   0      0.00%     70.92% # Type of FU issued
system.cpu0.iq.FU_type_0::SimdCmp                   0      0.00%     70.92% # Type of FU issued
system.cpu0.iq.FU_type_0::SimdCvt                   0      0.00%     70.92% # Type of FU issued
system.cpu0.iq.FU_type_0::SimdMisc                  0      0.00%     70.92% # Type of FU issued
system.cpu0.iq.FU_type_0::SimdMult                  0      0.00%     70.92% # Type of FU issued
system.cpu0.iq.FU_type_0::SimdMultAcc               0      0.00%     70.92% # Type of FU issued
system.cpu0.iq.FU_type_0::SimdShift                 0      0.00%     70.92% # Type of FU issued
system.cpu0.iq.FU_type_0::SimdShiftAcc              0      0.00%     70.92% # Type of FU issued
system.cpu0.iq.FU_type_0::SimdSqrt                  0      0.00%     70.92% # Type of FU issued
system.cpu0.iq.FU_type_0::SimdFloatAdd              0      0.00%     70.92% # Type of FU issued
system.cpu0.iq.FU_type_0::SimdFloatAlu              0      0.00%     70.92% # Type of FU issued
system.cpu0.iq.FU_type_0::SimdFloatCmp              0      0.00%     70.92% # Type of FU issued
system.cpu0.iq.FU_type_0::SimdFloatCvt              0      0.00%     70.92% # Type of FU issued
system.cpu0.iq.FU_type_0::SimdFloatDiv              0      0.00%     70.92% # Type of FU issued
system.cpu0.iq.FU_type_0::SimdFloatMisc             3      0.00%     70.93% # Type of FU issued
system.cpu0.iq.FU_type_0::SimdFloatMult             0      0.00%     70.93% # Type of FU issued
system.cpu0.iq.FU_type_0::SimdFloatMultAcc            0      0.00%     70.93% # Type of FU issued
system.cpu0.iq.FU_type_0::SimdFloatSqrt             0      0.00%     70.93% # Type of FU issued
system.cpu0.iq.FU_type_0::MemRead               38957     20.90%     91.83% # Type of FU issued
system.cpu0.iq.FU_type_0::MemWrite              15230      8.17%    100.00% # Type of FU issued
system.cpu0.iq.FU_type_0::IprAccess                 0      0.00%    100.00% # Type of FU issued
system.cpu0.iq.FU_type_0::InstPrefetch              0      0.00%    100.00% # Type of FU issued
system.cpu0.iq.FU_type_0::total                186375                       # Type of FU issued
system.cpu0.iq.rate                          1.134441                       # Inst issue rate
system.cpu0.iq.fu_busy_cnt                      28530                       # FU busy when requested
system.cpu0.iq.fu_busy_rate                  0.153078                       # FU busy rate (busy events/executed inst)
system.cpu0.iq.int_inst_queue_reads            525625                       # Number of integer instruction queue reads
system.cpu0.iq.int_inst_queue_writes           200360                       # Number of integer instruction queue writes
system.cpu0.iq.int_inst_queue_wakeup_accesses       183287                       # Number of integer instruction queue wakeup accesses
system.cpu0.iq.fp_inst_queue_reads                 78                       # Number of floating instruction queue reads
system.cpu0.iq.fp_inst_queue_writes                28                       # Number of floating instruction queue writes
system.cpu0.iq.fp_inst_queue_wakeup_accesses           28                       # Number of floating instruction queue wakeup accesses
system.cpu0.iq.int_alu_accesses                214855                       # Number of integer alu accesses
system.cpu0.iq.fp_alu_accesses                     50                       # Number of floating point alu accesses
system.cpu0.iew.lsq.thread0.forwLoads              52                       # Number of loads that had data forwarded from stores
system.cpu0.iew.lsq.thread0.invAddrLoads            0                       # Number of loads ignored due to an invalid address
system.cpu0.iew.lsq.thread0.squashedLoads         2801                       # Number of loads squashed
system.cpu0.iew.lsq.thread0.ignoredResponses            0                       # Number of memory responses ignored because the instruction is squashed
system.cpu0.iew.lsq.thread0.memOrderViolation           18                       # Number of memory ordering violations
system.cpu0.iew.lsq.thread0.squashedStores          926                       # Number of stores squashed
system.cpu0.iew.lsq.thread0.invAddrSwpfs            0                       # Number of software prefetches ignored due to an invalid address
system.cpu0.iew.lsq.thread0.blockedLoads            0                       # Number of blocked loads due to partial load-store forwarding
system.cpu0.iew.lsq.thread0.rescheduledLoads            7                       # Number of loads that were rescheduled
system.cpu0.iew.lsq.thread0.cacheBlocked          442                       # Number of times an access to memory failed due to the cache being blocked
system.cpu0.iew.iewIdleCycles                       0                       # Number of cycles IEW is idle
system.cpu0.iew.iewSquashCycles                  1282                       # Number of cycles IEW is squashing
system.cpu0.iew.iewBlockCycles                    550                       # Number of cycles IEW is blocking
system.cpu0.iew.iewUnblockCycles                   85                       # Number of cycles IEW is unblocking
system.cpu0.iew.iewDispatchedInsts             190017                       # Number of instructions dispatched to IQ
system.cpu0.iew.iewDispSquashedInsts                0                       # Number of squashed instructions skipped by dispatch
system.cpu0.iew.iewDispLoadInsts                39600                       # Number of dispatched load instructions
system.cpu0.iew.iewDispStoreInsts               15729                       # Number of dispatched store instructions
system.cpu0.iew.iewDispNonSpecInsts                96                       # Number of dispatched non-speculative instructions
system.cpu0.iew.iewIQFullEvents                     1                       # Number of times the IQ has become full, causing a stall
system.cpu0.iew.iewLSQFullEvents                   84                       # Number of times the LSQ has become full, causing a stall
system.cpu0.iew.memOrderViolationEvents            18                       # Number of memory order violations
system.cpu0.iew.predictedTakenIncorrect           358                       # Number of branches that were predicted taken incorrectly
system.cpu0.iew.predictedNotTakenIncorrect          950                       # Number of branches that were predicted not taken incorrectly
system.cpu0.iew.branchMispredicts                1308                       # Number of branch mispredicts detected at execute
system.cpu0.iew.iewExecutedInsts               184078                       # Number of executed instructions
system.cpu0.iew.iewExecLoadInsts                37957                       # Number of load instructions executed
system.cpu0.iew.iewExecSquashedInsts             2297                       # Number of squashed instructions skipped in execute
system.cpu0.iew.exec_swp                            0                       # number of swp insts executed
system.cpu0.iew.exec_nop                           14                       # number of nop insts executed
system.cpu0.iew.exec_refs                       53014                       # number of memory reference insts executed
system.cpu0.iew.exec_branches                   14941                       # Number of branches executed
system.cpu0.iew.exec_stores                     15057                       # Number of stores executed
system.cpu0.iew.exec_rate                    1.120459                       # Inst execution rate
system.cpu0.iew.wb_sent                        183431                       # cumulative count of insts sent to commit
system.cpu0.iew.wb_count                       183315                       # cumulative count of insts written-back
system.cpu0.iew.wb_producers                   119097                       # num instructions producing a value
system.cpu0.iew.wb_consumers                   177920                       # num instructions consuming a value
system.cpu0.iew.wb_penalized                        0                       # number of instrctions required to write to 'other' IQ
system.cpu0.iew.wb_rate                      1.115815                       # insts written-back per cycle
system.cpu0.iew.wb_fanout                    0.669385                       # average fanout of values written-back
system.cpu0.iew.wb_penalized_rate                   0                       # fraction of instructions written-back that wrote to 'other' IQ
system.cpu0.commit.commitSquashedInsts           7969                       # The number of squashed insts skipped by commit
system.cpu0.commit.commitNonSpecStalls            188                       # The number of times commit has been forced to stall to communicate backwards
system.cpu0.commit.branchMispredicts             1250                       # The number of times a branch was mispredicted
system.cpu0.commit.committed_per_cycle::samples       122060                       # Number of insts commited each cycle
system.cpu0.commit.committed_per_cycle::mean     1.471694                       # Number of insts commited each cycle
system.cpu0.commit.committed_per_cycle::stdev     2.179496                       # Number of insts commited each cycle
system.cpu0.commit.committed_per_cycle::underflows            0      0.00%      0.00% # Number of insts commited each cycle
system.cpu0.commit.committed_per_cycle::0        56925     46.64%     46.64% # Number of insts commited each cycle
system.cpu0.commit.committed_per_cycle::1        26646     21.83%     68.47% # Number of insts commited each cycle
system.cpu0.commit.committed_per_cycle::2        14429     11.82%     80.29% # Number of insts commited each cycle
system.cpu0.commit.committed_per_cycle::3        10778      8.83%     89.12% # Number of insts commited each cycle
system.cpu0.commit.committed_per_cycle::4         1501      1.23%     90.35% # Number of insts commited each cycle
system.cpu0.commit.committed_per_cycle::5         1100      0.90%     91.25% # Number of insts commited each cycle
system.cpu0.commit.committed_per_cycle::6         2517      2.06%     93.31% # Number of insts commited each cycle
system.cpu0.commit.committed_per_cycle::7          121      0.10%     93.41% # Number of insts commited each cycle
system.cpu0.commit.committed_per_cycle::8         8043      6.59%    100.00% # Number of insts commited each cycle
system.cpu0.commit.committed_per_cycle::overflows            0      0.00%    100.00% # Number of insts commited each cycle
system.cpu0.commit.committed_per_cycle::min_value            0                       # Number of insts commited each cycle
system.cpu0.commit.committed_per_cycle::max_value            8                       # Number of insts commited each cycle
system.cpu0.commit.committed_per_cycle::total       122060                       # Number of insts commited each cycle
system.cpu0.commit.committedInsts              169408                       # Number of instructions committed
system.cpu0.commit.committedOps                179635                       # Number of ops (including micro ops) committed
system.cpu0.commit.swp_count                        0                       # Number of s/w prefetches committed
system.cpu0.commit.refs                         51602                       # Number of memory references committed
system.cpu0.commit.loads                        36799                       # Number of loads committed
system.cpu0.commit.membars                        113                       # Number of memory barriers committed
system.cpu0.commit.branches                     14403                       # Number of branches committed
system.cpu0.commit.fp_insts                        28                       # Number of committed floating point instructions.
system.cpu0.commit.int_insts                   165735                       # Number of committed integer instructions.
system.cpu0.commit.function_calls                 290                       # Number of function calls committed.
system.cpu0.commit.op_class_0::No_OpClass            0      0.00%      0.00% # Class of committed instruction
system.cpu0.commit.op_class_0::IntAlu          101380     56.44%     56.44% # Class of committed instruction
system.cpu0.commit.op_class_0::IntMult          26650     14.84%     71.27% # Class of committed instruction
system.cpu0.commit.op_class_0::IntDiv               0      0.00%     71.27% # Class of committed instruction
system.cpu0.commit.op_class_0::FloatAdd             0      0.00%     71.27% # Class of committed instruction
system.cpu0.commit.op_class_0::FloatCmp             0      0.00%     71.27% # Class of committed instruction
system.cpu0.commit.op_class_0::FloatCvt             0      0.00%     71.27% # Class of committed instruction
system.cpu0.commit.op_class_0::FloatMult            0      0.00%     71.27% # Class of committed instruction
system.cpu0.commit.op_class_0::FloatDiv             0      0.00%     71.27% # Class of committed instruction
system.cpu0.commit.op_class_0::FloatSqrt            0      0.00%     71.27% # Class of committed instruction
system.cpu0.commit.op_class_0::SimdAdd              0      0.00%     71.27% # Class of committed instruction
system.cpu0.commit.op_class_0::SimdAddAcc            0      0.00%     71.27% # Class of committed instruction
system.cpu0.commit.op_class_0::SimdAlu              0      0.00%     71.27% # Class of committed instruction
system.cpu0.commit.op_class_0::SimdCmp              0      0.00%     71.27% # Class of committed instruction
system.cpu0.commit.op_class_0::SimdCvt              0      0.00%     71.27% # Class of committed instruction
system.cpu0.commit.op_class_0::SimdMisc             0      0.00%     71.27% # Class of committed instruction
system.cpu0.commit.op_class_0::SimdMult             0      0.00%     71.27% # Class of committed instruction
system.cpu0.commit.op_class_0::SimdMultAcc            0      0.00%     71.27% # Class of committed instruction
system.cpu0.commit.op_class_0::SimdShift            0      0.00%     71.27% # Class of committed instruction
system.cpu0.commit.op_class_0::SimdShiftAcc            0      0.00%     71.27% # Class of committed instruction
system.cpu0.commit.op_class_0::SimdSqrt             0      0.00%     71.27% # Class of committed instruction
system.cpu0.commit.op_class_0::SimdFloatAdd            0      0.00%     71.27% # Class of committed instruction
system.cpu0.commit.op_class_0::SimdFloatAlu            0      0.00%     71.27% # Class of committed instruction
system.cpu0.commit.op_class_0::SimdFloatCmp            0      0.00%     71.27% # Class of committed instruction
system.cpu0.commit.op_class_0::SimdFloatCvt            0      0.00%     71.27% # Class of committed instruction
system.cpu0.commit.op_class_0::SimdFloatDiv            0      0.00%     71.27% # Class of committed instruction
system.cpu0.commit.op_class_0::SimdFloatMisc            3      0.00%     71.27% # Class of committed instruction
system.cpu0.commit.op_class_0::SimdFloatMult            0      0.00%     71.27% # Class of committed instruction
[...]
system.l2.ReadReq_mshr_miss_rate::cpu0.inst     0.833333                       # mshr miss rate for ReadReq accesses
system.l2.ReadReq_mshr_miss_rate::cpu0.data     0.679245                       # mshr miss rate for ReadReq accesses
system.l2.ReadReq_mshr_miss_rate::cpu1.inst     0.259259                       # mshr miss rate for ReadReq accesses
system.l2.ReadReq_mshr_miss_rate::cpu1.data     0.090909                       # mshr miss rate for ReadReq accesses
system.l2.ReadReq_mshr_miss_rate::cpu2.inst     0.054545                       # mshr miss rate for ReadReq accesses
system.l2.ReadReq_mshr_miss_rate::cpu3.inst     0.129630                       # mshr miss rate for ReadReq accesses
system.l2.ReadReq_mshr_miss_rate::total      0.665298                       # mshr miss rate for ReadReq accesses
system.l2.HardPFReq_mshr_miss_rate::l2.prefetcher          inf                       # mshr miss rate for HardPFReq accesses
system.l2.HardPFReq_mshr_miss_rate::total          inf                       # mshr miss rate for HardPFReq accesses
system.l2.UpgradeReq_mshr_miss_rate::cpu0.data     0.714286                       # mshr miss rate for UpgradeReq accesses
system.l2.UpgradeReq_mshr_miss_rate::total     0.714286                       # mshr miss rate for UpgradeReq accesses
system.l2.SCUpgradeReq_mshr_miss_rate::cpu0.data            1                       # mshr miss rate for SCUpgradeReq accesses
system.l2.SCUpgradeReq_mshr_miss_rate::cpu2.data            1                       # mshr miss rate for SCUpgradeReq accesses
system.l2.SCUpgradeReq_mshr_miss_rate::total            1                       # mshr miss rate for SCUpgradeReq accesses
system.l2.ReadExReq_mshr_miss_rate::cpu0.data     0.121905                       # mshr miss rate for ReadExReq accesses
system.l2.ReadExReq_mshr_miss_rate::cpu1.data            1                       # mshr miss rate for ReadExReq accesses
system.l2.ReadExReq_mshr_miss_rate::cpu2.data            1                       # mshr miss rate for ReadExReq accesses
system.l2.ReadExReq_mshr_miss_rate::cpu3.data     0.800000                       # mshr miss rate for ReadExReq accesses
system.l2.ReadExReq_mshr_miss_rate::total     0.141264                       # mshr miss rate for ReadExReq accesses
system.l2.demand_mshr_miss_rate::cpu0.inst     0.833333                       # mshr miss rate for demand accesses
system.l2.demand_mshr_miss_rate::cpu0.data     0.251462                       # mshr miss rate for demand accesses
system.l2.demand_mshr_miss_rate::cpu1.inst     0.259259                       # mshr miss rate for demand accesses
system.l2.demand_mshr_miss_rate::cpu1.data     0.333333                       # mshr miss rate for demand accesses
system.l2.demand_mshr_miss_rate::cpu2.inst     0.054545                       # mshr miss rate for demand accesses
system.l2.demand_mshr_miss_rate::cpu2.data     0.266667                       # mshr miss rate for demand accesses
system.l2.demand_mshr_miss_rate::cpu3.inst     0.129630                       # mshr miss rate for demand accesses
system.l2.demand_mshr_miss_rate::cpu3.data     0.235294                       # mshr miss rate for demand accesses
system.l2.demand_mshr_miss_rate::total       0.478836                       # mshr miss rate for demand accesses
system.l2.overall_mshr_miss_rate::cpu0.inst     0.833333                       # mshr miss rate for overall accesses
system.l2.overall_mshr_miss_rate::cpu0.data     0.251462                       # mshr miss rate for overall accesses
system.l2.overall_mshr_miss_rate::cpu1.inst     0.259259                       # mshr miss rate for overall accesses
system.l2.overall_mshr_miss_rate::cpu1.data     0.333333                       # mshr miss rate for overall accesses
system.l2.overall_mshr_miss_rate::cpu2.inst     0.054545                       # mshr miss rate for overall accesses
system.l2.overall_mshr_miss_rate::cpu2.data     0.266667                       # mshr miss rate for overall accesses
system.l2.overall_mshr_miss_rate::cpu3.inst     0.129630                       # mshr miss rate for overall accesses
system.l2.overall_mshr_miss_rate::cpu3.data     0.235294                       # mshr miss rate for overall accesses
system.l2.overall_mshr_miss_rate::l2.prefetcher          inf                       # mshr miss rate for overall accesses
system.l2.overall_mshr_miss_rate::total      0.824735                       # mshr miss rate for overall accesses
system.l2.ReadReq_avg_mshr_miss_latency::cpu0.inst 62074.757282                       # average ReadReq mshr miss latency
system.l2.ReadReq_avg_mshr_miss_latency::cpu0.data 70782.407407                       # average ReadReq mshr miss latency
system.l2.ReadReq_avg_mshr_miss_latency::cpu1.inst 76196.428571                       # average ReadReq mshr miss latency
system.l2.ReadReq_avg_mshr_miss_latency::cpu1.data        58500                       # average ReadReq mshr miss latency
system.l2.ReadReq_avg_mshr_miss_latency::cpu2.inst        53500                       # average ReadReq mshr miss latency
system.l2.ReadReq_avg_mshr_miss_latency::cpu3.inst        62500                       # average ReadReq mshr miss latency
system.l2.ReadReq_avg_mshr_miss_latency::total 63790.509259                       # average ReadReq mshr miss latency
system.l2.HardPFReq_avg_mshr_miss_latency::l2.prefetcher 53569.686424                       # average HardPFReq mshr miss latency
system.l2.HardPFReq_avg_mshr_miss_latency::total 53569.686424                       # average HardPFReq mshr miss latency
system.l2.UpgradeReq_avg_mshr_miss_latency::cpu0.data        13901                       # average UpgradeReq mshr miss latency
system.l2.UpgradeReq_avg_mshr_miss_latency::total        13901                       # average UpgradeReq mshr miss latency
system.l2.SCUpgradeReq_avg_mshr_miss_latency::cpu0.data        14001                       # average SCUpgradeReq mshr miss latency
system.l2.SCUpgradeReq_avg_mshr_miss_latency::cpu2.data        13501                       # average SCUpgradeReq mshr miss latency
system.l2.SCUpgradeReq_avg_mshr_miss_latency::total        13751                       # average SCUpgradeReq mshr miss latency
system.l2.ReadExReq_avg_mshr_miss_latency::cpu0.data 75113.281250                       # average ReadExReq mshr miss latency
system.l2.ReadExReq_avg_mshr_miss_latency::cpu1.data 86937.500000                       # average ReadExReq mshr miss latency
system.l2.ReadExReq_avg_mshr_miss_latency::cpu2.data       108875                       # average ReadExReq mshr miss latency
system.l2.ReadExReq_avg_mshr_miss_latency::cpu3.data       107500                       # average ReadExReq mshr miss latency
system.l2.ReadExReq_avg_mshr_miss_latency::total 79217.105263                       # average ReadExReq mshr miss latency
system.l2.demand_avg_mshr_miss_latency::cpu0.inst 62074.757282                       # average overall mshr miss latency
system.l2.demand_avg_mshr_miss_latency::cpu0.data 72393.895349                       # average overall mshr miss latency
system.l2.demand_avg_mshr_miss_latency::cpu1.inst 76196.428571                       # average overall mshr miss latency
system.l2.demand_avg_mshr_miss_latency::cpu1.data        81250                       # average overall mshr miss latency
system.l2.demand_avg_mshr_miss_latency::cpu2.inst        53500                       # average overall mshr miss latency
system.l2.demand_avg_mshr_miss_latency::cpu2.data       108875                       # average overall mshr miss latency
system.l2.demand_avg_mshr_miss_latency::cpu3.inst        62500                       # average overall mshr miss latency
system.l2.demand_avg_mshr_miss_latency::cpu3.data       107500                       # average overall mshr miss latency
system.l2.demand_avg_mshr_miss_latency::total 65409.875691                       # average overall mshr miss latency
system.l2.overall_avg_mshr_miss_latency::cpu0.inst 62074.757282                       # average overall mshr miss latency
system.l2.overall_avg_mshr_miss_latency::cpu0.data 72393.895349                       # average overall mshr miss latency
system.l2.overall_avg_mshr_miss_latency::cpu1.inst 76196.428571                       # average overall mshr miss latency
system.l2.overall_avg_mshr_miss_latency::cpu1.data        81250                       # average overall mshr miss latency
system.l2.overall_avg_mshr_miss_latency::cpu2.inst        53500                       # average overall mshr miss latency
system.l2.overall_avg_mshr_miss_latency::cpu2.data       108875                       # average overall mshr miss latency
system.l2.overall_avg_mshr_miss_latency::cpu3.inst        62500                       # average overall mshr miss latency
system.l2.overall_avg_mshr_miss_latency::cpu3.data       107500                       # average overall mshr miss latency
system.l2.overall_avg_mshr_miss_latency::l2.prefetcher 53569.686424                       # average overall mshr miss latency
system.l2.overall_avg_mshr_miss_latency::total 60444.022454                       # average overall mshr miss latency
system.l2.no_allocate_misses                        0                       # Number of misses that were no-allocate
system.membus.trans_dist::ReadReq                1130                       # Transaction distribution
system.membus.trans_dist::ReadResp               1129                       # Transaction distribution
system.membus.trans_dist::UpgradeReq               10                       # Transaction distribution
system.membus.trans_dist::SCUpgradeReq             10                       # Transaction distribution
system.membus.trans_dist::UpgradeResp               7                       # Transaction distribution
system.membus.trans_dist::ReadExReq                76                       # Transaction distribution
system.membus.trans_dist::ReadExResp               76                       # Transaction distribution
system.membus.pkt_count_system.l2.mem_side::system.mem_ctrls.port         2438                       # Packet count per connected master and slave (bytes)
system.membus.pkt_count::total                   2438                       # Packet count per connected master and slave (bytes)
system.membus.pkt_size_system.l2.mem_side::system.mem_ctrls.port        77120                       # Cumulative packet size per connected master and slave (bytes)
system.membus.pkt_size::total                   77120                       # Cumulative packet size per connected master and slave (bytes)
system.membus.snoops                               13                       # Total snoops (count)
system.membus.snoop_fanout::samples              1226                       # Request fanout histogram
system.membus.snoop_fanout::mean                    0                       # Request fanout histogram
system.membus.snoop_fanout::stdev                   0                       # Request fanout histogram
system.membus.snoop_fanout::underflows              0      0.00%      0.00% # Request fanout histogram
system.membus.snoop_fanout::0                    1226    100.00%    100.00% # Request fanout histogram
system.membus.snoop_fanout::1                       0      0.00%    100.00% # Request fanout histogram
system.membus.snoop_fanout::overflows               0      0.00%    100.00% # Request fanout histogram
system.membus.snoop_fanout::min_value               0                       # Request fanout histogram
system.membus.snoop_fanout::max_value               0                       # Request fanout histogram
system.membus.snoop_fanout::total                1226                       # Request fanout histogram
system.membus.reqLayer0.occupancy             1663068                       # Layer occupancy (ticks)
system.membus.reqLayer0.utilization               2.0                       # Layer utilization (%)
system.membus.respLayer1.occupancy            6364500                       # Layer occupancy (ticks)
system.membus.respLayer1.utilization              7.7                       # Layer utilization (%)
system.tol2bus.trans_dist::ReadReq               1522                       # Transaction distribution
system.tol2bus.trans_dist::ReadResp              1520                       # Transaction distribution
system.tol2bus.trans_dist::Writeback               15                       # Transaction distribution
system.tol2bus.trans_dist::HardPFReq              617                       # Transaction distribution
system.tol2bus.trans_dist::UpgradeReq              12                       # Transaction distribution
system.tol2bus.trans_dist::SCUpgradeReq            10                       # Transaction distribution
system.tol2bus.trans_dist::UpgradeResp             22                       # Transaction distribution
system.tol2bus.trans_dist::SCUpgradeFailReq            4                       # Transaction distribution
system.tol2bus.trans_dist::UpgradeFailResp            4                       # Transaction distribution
system.tol2bus.trans_dist::ReadExReq              643                       # Transaction distribution
system.tol2bus.trans_dist::ReadExResp             643                       # Transaction distribution
system.tol2bus.pkt_count_system.cpu0.icache.mem_side::system.l2.cpu_side         1234                       # Packet count per connected master and slave (bytes)
system.tol2bus.pkt_count_system.cpu0.dcache.mem_side::system.l2.cpu_side         1404                       # Packet count per connected master and slave (bytes)
system.tol2bus.pkt_count_system.cpu1.icache.mem_side::system.l2.cpu_side          108                       # Packet count per connected master and slave (bytes)
system.tol2bus.pkt_count_system.cpu1.dcache.mem_side::system.l2.cpu_side          251                       # Packet count per connected master and slave (bytes)
system.tol2bus.pkt_count_system.cpu2.icache.mem_side::system.l2.cpu_side          110                       # Packet count per connected master and slave (bytes)
system.tol2bus.pkt_count_system.cpu2.dcache.mem_side::system.l2.cpu_side          253                       # Packet count per connected master and slave (bytes)
system.tol2bus.pkt_count_system.cpu3.icache.mem_side::system.l2.cpu_side          108                       # Packet count per connected master and slave (bytes)
system.tol2bus.pkt_count_system.cpu3.dcache.mem_side::system.l2.cpu_side          257                       # Packet count per connected master and slave (bytes)
system.tol2bus.pkt_count::total                  3725                       # Packet count per connected master and slave (bytes)
system.tol2bus.pkt_size_system.cpu0.icache.mem_side::system.l2.cpu_side        39424                       # Cumulative packet size per connected master and slave (bytes)
system.tol2bus.pkt_size_system.cpu0.dcache.mem_side::system.l2.cpu_side        44736                       # Cumulative packet size per connected master and slave (bytes)
system.tol2bus.pkt_size_system.cpu1.icache.mem_side::system.l2.cpu_side         3456                       # Cumulative packet size per connected master and slave (bytes)
system.tol2bus.pkt_size_system.cpu1.dcache.mem_side::system.l2.cpu_side          960                       # Cumulative packet size per connected master and slave (bytes)
system.tol2bus.pkt_size_system.cpu2.icache.mem_side::system.l2.cpu_side         3520                       # Cumulative packet size per connected master and slave (bytes)
system.tol2bus.pkt_size_system.cpu2.dcache.mem_side::system.l2.cpu_side          960                       # Cumulative packet size per connected master and slave (bytes)
system.tol2bus.pkt_size_system.cpu3.icache.mem_side::system.l2.cpu_side         3456                       # Cumulative packet size per connected master and slave (bytes)
system.tol2bus.pkt_size_system.cpu3.dcache.mem_side::system.l2.cpu_side         1088                       # Cumulative packet size per connected master and slave (bytes)
system.tol2bus.pkt_size::total                  97600                       # Cumulative packet size per connected master and slave (bytes)
system.tol2bus.snoops                            1287                       # Total snoops (count)
system.tol2bus.snoop_fanout::samples             2823                       # Request fanout histogram
system.tol2bus.snoop_fanout::mean            7.218562                       # Request fanout histogram
system.tol2bus.snoop_fanout::stdev           0.413344                       # Request fanout histogram
system.tol2bus.snoop_fanout::underflows             0      0.00%      0.00% # Request fanout histogram
system.tol2bus.snoop_fanout::0                      0      0.00%      0.00% # Request fanout histogram
system.tol2bus.snoop_fanout::1                      0      0.00%      0.00% # Request fanout histogram
system.tol2bus.snoop_fanout::2                      0      0.00%      0.00% # Request fanout histogram
system.tol2bus.snoop_fanout::3                      0      0.00%      0.00% # Request fanout histogram
system.tol2bus.snoop_fanout::4                      0      0.00%      0.00% # Request fanout histogram
system.tol2bus.snoop_fanout::5                      0      0.00%      0.00% # Request fanout histogram
system.tol2bus.snoop_fanout::6                      0      0.00%      0.00% # Request fanout histogram
system.tol2bus.snoop_fanout::7                   2206     78.14%     78.14% # Request fanout histogram
system.tol2bus.snoop_fanout::8                    617     21.86%    100.00% # Request fanout histogram
system.tol2bus.snoop_fanout::overflows              0      0.00%    100.00% # Request fanout histogram
system.tol2bus.snoop_fanout::min_value              7                       # Request fanout histogram
system.tol2bus.snoop_fanout::max_value              8                       # Request fanout histogram
system.tol2bus.snoop_fanout::total               2823                       # Request fanout histogram
system.tol2bus.reqLayer0.occupancy            1118499                       # Layer occupancy (ticks)
system.tol2bus.reqLayer0.utilization              1.4                       # Layer utilization (%)
system.tol2bus.respLayer0.occupancy           1029731                       # Layer occupancy (ticks)
system.tol2bus.respLayer0.utilization             1.3                       # Layer utilization (%)
system.tol2bus.respLayer1.occupancy           1066239                       # Layer occupancy (ticks)
system.tol2bus.respLayer1.utilization             1.3                       # Layer utilization (%)
system.tol2bus.respLayer4.occupancy             86484                       # Layer occupancy (ticks)
system.tol2bus.respLayer4.utilization             0.1                       # Layer utilization (%)
system.tol2bus.respLayer5.occupancy            355734                       # Layer occupancy (ticks)
system.tol2bus.respLayer5.utilization             0.4                       # Layer utilization (%)
system.tol2bus.respLayer8.occupancy             90961                       # Layer occupancy (ticks)
system.tol2bus.respLayer8.utilization             0.1                       # Layer utilization (%)
system.tol2bus.respLayer9.occupancy            356489                       # Layer occupancy (ticks)
system.tol2bus.respLayer9.utilization             0.4                       # Layer utilization (%)
system.tol2bus.respLayer12.occupancy            86722                       # Layer occupancy (ticks)
system.tol2bus.respLayer12.utilization            0.1                       # Layer utilization (%)
system.tol2bus.respLayer13.occupancy           356496                       # Layer occupancy (ticks)
system.tol2bus.respLayer13.utilization            0.4                       # Layer utilization (%)

---------- End Simulation Statistics   ----------
