
---------- Begin Simulation Statistics ----------
sim_seconds                                  0.000068                       # Number of seconds simulated
sim_ticks                                    67890500                       # Number of ticks simulated
final_tick                                   67890500                       # Number of ticks from beginning of simulation (restored from checkpoints and never reset)
sim_freq                                 1000000000000                       # Frequency of simulated ticks
host_inst_rate                                 170600                       # Simulator instruction rate (inst/s)
host_op_rate                                   174530                       # Simulator op (including micro ops) rate (op/s)
host_tick_rate                               18316682                       # Simulator tick rate (ticks/s)
host_mem_usage                                 683804                       # Number of bytes of host memory used
host_seconds                                     3.71                       # Real time elapsed on the host
sim_insts                                      632322                       # Number of instructions simulated
sim_ops                                        646890                       # Number of ops (including micro ops) simulated
system.voltage_domain.voltage                       1                       # Voltage in Volts
system.clk_domain.clock                          1000                       # Clock period in ticks
system.mem_ctrls.bytes_read::cpu0.inst          32384                       # Number of bytes read from this memory
system.mem_ctrls.bytes_read::cpu0.data          11712                       # Number of bytes read from this memory
system.mem_ctrls.bytes_read::cpu1.inst            960                       # Number of bytes read from this memory
system.mem_ctrls.bytes_read::cpu1.data            256                       # Number of bytes read from this memory
system.mem_ctrls.bytes_read::cpu2.inst            448                       # Number of bytes read from this memory
system.mem_ctrls.bytes_read::cpu2.data            320                       # Number of bytes read from this memory
system.mem_ctrls.bytes_read::cpu3.inst             64                       # Number of bytes read from this memory
system.mem_ctrls.bytes_read::cpu3.data            256                       # Number of bytes read from this memory
system.mem_ctrls.bytes_read::cpu4.inst            320                       # Number of bytes read from this memory
system.mem_ctrls.bytes_read::cpu4.data            320                       # Number of bytes read from this memory
system.mem_ctrls.bytes_read::cpu5.data            256                       # Number of bytes read from this memory
system.mem_ctrls.bytes_read::cpu6.data            256                       # Number of bytes read from this memory
system.mem_ctrls.bytes_read::cpu7.inst            256                       # Number of bytes read from this memory
system.mem_ctrls.bytes_read::cpu7.data            256                       # Number of bytes read from this memory
system.mem_ctrls.bytes_read::l2.prefetcher        30912                       # Number of bytes read from this memory
system.mem_ctrls.bytes_read::total              78976                       # Number of bytes read from this memory
system.mem_ctrls.bytes_inst_read::cpu0.inst        32384                       # Number of instructions bytes read from this memory
system.mem_ctrls.bytes_inst_read::cpu1.inst          960                       # Number of instructions bytes read from this memory
system.mem_ctrls.bytes_inst_read::cpu2.inst          448                       # Number of instructions bytes read from this memory
system.mem_ctrls.bytes_inst_read::cpu3.inst           64                       # Number of instructions bytes read from this memory
system.mem_ctrls.bytes_inst_read::cpu4.inst          320                       # Number of instructions bytes read from this memory
system.mem_ctrls.bytes_inst_read::cpu7.inst          256                       # Number of instructions bytes read from this memory
system.mem_ctrls.bytes_inst_read::total         34432                       # Number of instructions bytes read from this memory
system.mem_ctrls.num_reads::cpu0.inst             506                       # Number of read requests responded to by this memory
system.mem_ctrls.num_reads::cpu0.data             183                       # Number of read requests responded to by this memory
system.mem_ctrls.num_reads::cpu1.inst              15                       # Number of read requests responded to by this memory
system.mem_ctrls.num_reads::cpu1.data               4                       # Number of read requests responded to by this memory
system.mem_ctrls.num_reads::cpu2.inst               7                       # Number of read requests responded to by this memory
system.mem_ctrls.num_reads::cpu2.data               5                       # Number of read requests responded to by this memory
system.mem_ctrls.num_reads::cpu3.inst               1                       # Number of read requests responded to by this memory
system.mem_ctrls.num_reads::cpu3.data               4                       # Number of read requests responded to by this memory
system.mem_ctrls.num_reads::cpu4.inst               5                       # Number of read requests responded to by this memory
system.mem_ctrls.num_reads::cpu4.data               5                       # Number of read requests responded to by this memory
system.mem_ctrls.num_reads::cpu5.data               4                       # Number of read requests responded to by this memory
system.mem_ctrls.num_reads::cpu6.data               4                       # Number of read requests responded to by this memory
system.mem_ctrls.num_reads::cpu7.inst               4                       # Number of read requests responded to by this memory
system.mem_ctrls.num_reads::cpu7.data               4                       # Number of read requests responded to by this memory
system.mem_ctrls.num_reads::l2.prefetcher          483                       # Number of read requests responded to by this memory
system.mem_ctrls.num_reads::total                1234                       # Number of read requests responded to by this memory
system.mem_ctrls.bw_read::cpu0.inst         477003410                       # Total read bandwidth from this memory (bytes/s)
system.mem_ctrls.bw_read::cpu0.data         172513091                       # Total read bandwidth from this memory (bytes/s)
system.mem_ctrls.bw_read::cpu1.inst          14140417                       # Total read bandwidth from this memory (bytes/s)
system.mem_ctrls.bw_read::cpu1.data           3770778                       # Total read bandwidth from this memory (bytes/s)
system.mem_ctrls.bw_read::cpu2.inst           6598861                       # Total read bandwidth from this memory (bytes/s)
system.mem_ctrls.bw_read::cpu2.data           4713472                       # Total read bandwidth from this memory (bytes/s)
system.mem_ctrls.bw_read::cpu3.inst            942694                       # Total read bandwidth from this memory (bytes/s)
system.mem_ctrls.bw_read::cpu3.data           3770778                       # Total read bandwidth from this memory (bytes/s)
system.mem_ctrls.bw_read::cpu4.inst           4713472                       # Total read bandwidth from this memory (bytes/s)
system.mem_ctrls.bw_read::cpu4.data           4713472                       # Total read bandwidth from this memory (bytes/s)
system.mem_ctrls.bw_read::cpu5.data           3770778                       # Total read bandwidth from this memory (bytes/s)
system.mem_ctrls.bw_read::cpu6.data           3770778                       # Total read bandwidth from this memory (bytes/s)
system.mem_ctrls.bw_read::cpu7.inst           3770778                       # Total read bandwidth from this memory (bytes/s)
system.mem_ctrls.bw_read::cpu7.data           3770778                       # Total read bandwidth from this memory (bytes/s)
system.mem_ctrls.bw_read::l2.prefetcher     455321437                       # Total read bandwidth from this memory (bytes/s)
system.mem_ctrls.bw_read::total            1163284996                       # Total read bandwidth from this memory (bytes/s)
system.mem_ctrls.bw_inst_read::cpu0.inst    477003410                       # Instruction read bandwidth from this memory (bytes/s)
system.mem_ctrls.bw_inst_read::cpu1.inst     14140417                       # Instruction read bandwidth from this memory (bytes/s)
system.mem_ctrls.bw_inst_read::cpu2.inst      6598861                       # Instruction read bandwidth from this memory (bytes/s)
system.mem_ctrls.bw_inst_read::cpu3.inst       942694                       # Instruction read bandwidth from this memory (bytes/s)
system.mem_ctrls.bw_inst_read::cpu4.inst      4713472                       # Instruction read bandwidth from this memory (bytes/s)
system.mem_ctrls.bw_inst_read::cpu7.inst      3770778                       # Instruction read bandwidth from this memory (bytes/s)
system.mem_ctrls.bw_inst_read::total        507169633                       # Instruction read bandwidth from this memory (bytes/s)
system.mem_ctrls.bw_total::cpu0.inst        477003410                       # Total bandwidth to/from this memory (bytes/s)
system.mem_ctrls.bw_total::cpu0.data        172513091                       # Total bandwidth to/from this memory (bytes/s)
system.mem_ctrls.bw_total::cpu1.inst         14140417                       # Total bandwidth to/from this memory (bytes/s)
system.mem_ctrls.bw_total::cpu1.data          3770778                       # Total bandwidth to/from this memory (bytes/s)
system.mem_ctrls.bw_total::cpu2.inst          6598861                       # Total bandwidth to/from this memory (bytes/s)
system.mem_ctrls.bw_total::cpu2.data          4713472                       # Total bandwidth to/from this memory (bytes/s)
system.mem_ctrls.bw_total::cpu3.inst           942694                       # Total bandwidth to/from this memory (bytes/s)
system.mem_ctrls.bw_total::cpu3.data          3770778                       # Total bandwidth to/from this memory (bytes/s)
system.mem_ctrls.bw_total::cpu4.inst          4713472                       # Total bandwidth to/from this memory (bytes/s)
system.mem_ctrls.bw_total::cpu4.data          4713472                       # Total bandwidth to/from this memory (bytes/s)
system.mem_ctrls.bw_total::cpu5.data          3770778                       # Total bandwidth to/from this memory (bytes/s)
system.mem_ctrls.bw_total::cpu6.data          3770778                       # Total bandwidth to/from this memory (bytes/s)
system.mem_ctrls.bw_total::cpu7.inst          3770778                       # Total bandwidth to/from this memory (bytes/s)
system.mem_ctrls.bw_total::cpu7.data          3770778                       # Total bandwidth to/from this memory (bytes/s)
system.mem_ctrls.bw_total::l2.prefetcher    455321437                       # Total bandwidth to/from this memory (bytes/s)
system.mem_ctrls.bw_total::total           1163284996                       # Total bandwidth to/from this memory (bytes/s)
system.mem_ctrls.readReqs                        1234                       # Number of read requests accepted
system.mem_ctrls.writeReqs                          0                       # Number of write requests accepted
system.mem_ctrls.readBursts                      1234                       # Number of DRAM read bursts, including those serviced by the write queue
system.mem_ctrls.writeBursts                        0                       # Number of DRAM write bursts, including those merged in the write queue
system.mem_ctrls.bytesReadDRAM                  78976                       # Total number of bytes read from DRAM
system.mem_ctrls.bytesReadWrQ                       0                       # Total number of bytes read from write queue
system.mem_ctrls.bytesWritten                       0                       # Total number of bytes written to DRAM
system.mem_ctrls.bytesReadSys                   78976                       # Total read bytes from the system interface side
system.mem_ctrls.bytesWrittenSys                    0                       # Total written bytes from the system interface side
system.mem_ctrls.servicedByWrQ                      0                       # Number of DRAM read bursts serviced by the write queue
system.mem_ctrls.mergedWrBursts                     0                       # Number of DRAM write bursts merged with an existing one
system.mem_ctrls.neitherReadNorWriteReqs            5                       # Number of requests that are neither read nor write
system.mem_ctrls.perBankRdBursts::0               125                       # Per bank write bursts
system.mem_ctrls.perBankRdBursts::1               125                       # Per bank write bursts
system.mem_ctrls.perBankRdBursts::2               135                       # Per bank write bursts
system.mem_ctrls.perBankRdBursts::3               208                       # Per bank write bursts
system.mem_ctrls.perBankRdBursts::4               175                       # Per bank write bursts
system.mem_ctrls.perBankRdBursts::5               148                       # Per bank write bursts
system.mem_ctrls.perBankRdBursts::6               120                       # Per bank write bursts
system.mem_ctrls.perBankRdBursts::7                29                       # Per bank write bursts
system.mem_ctrls.perBankRdBursts::8                16                       # Per bank write bursts
system.mem_ctrls.perBankRdBursts::9                 8                       # Per bank write bursts
system.mem_ctrls.perBankRdBursts::10                0                       # Per bank write bursts
system.mem_ctrls.perBankRdBursts::11               13                       # Per bank write bursts
system.mem_ctrls.perBankRdBursts::12                5                       # Per bank write bursts
system.mem_ctrls.perBankRdBursts::13               34                       # Per bank write bursts
system.mem_ctrls.perBankRdBursts::14               38                       # Per bank write bursts
system.mem_ctrls.perBankRdBursts::15               55                       # Per bank write bursts
system.mem_ctrls.perBankWrBursts::0                 0                       # Per bank write bursts
system.mem_ctrls.perBankWrBursts::1                 0                       # Per bank write bursts
system.mem_ctrls.perBankWrBursts::2                 0                       # Per bank write bursts
system.mem_ctrls.perBankWrBursts::3                 0                       # Per bank write bursts
system.mem_ctrls.perBankWrBursts::4                 0                       # Per bank write bursts
system.mem_ctrls.perBankWrBursts::5                 0                       # Per bank write bursts
system.mem_ctrls.perBankWrBursts::6                 0                       # Per bank write bursts
system.mem_ctrls.perBankWrBursts::7                 0                       # Per bank write bursts
system.mem_ctrls.perBankWrBursts::8                 0                       # Per bank write bursts
system.mem_ctrls.perBankWrBursts::9                 0                       # Per bank write bursts
system.mem_ctrls.perBankWrBursts::10                0                       # Per bank write bursts
system.mem_ctrls.perBankWrBursts::11                0                       # Per bank write bursts
system.mem_ctrls.perBankWrBursts::12                0                       # Per bank write bursts
system.mem_ctrls.perBankWrBursts::13                0                       # Per bank write bursts
system.mem_ctrls.perBankWrBursts::14                0                       # Per bank write bursts
system.mem_ctrls.perBankWrBursts::15                0                       # Per bank write bursts
system.mem_ctrls.numRdRetry                         0                       # Number of times read queue was full causing retry
system.mem_ctrls.numWrRetry                         0                       # Number of times write queue was full causing retry
system.mem_ctrls.totGap                      67851500                       # Total gap between requests
system.mem_ctrls.readPktSize::0                     0                       # Read request sizes (log2)
system.mem_ctrls.readPktSize::1                     0                       # Read request sizes (log2)
system.mem_ctrls.readPktSize::2                     0                       # Read request sizes (log2)
system.mem_ctrls.readPktSize::3                     0                       # Read request sizes (log2)
system.mem_ctrls.readPktSize::4                     0                       # Read request sizes (log2)
system.mem_ctrls.readPktSize::5                     0                       # Read request sizes (log2)
system.mem_ctrls.readPktSize::6                  1234                       # Read request sizes (log2)
system.mem_ctrls.writePktSize::0                    0                       # Write request sizes (log2)
system.mem_ctrls.writePktSize::1                    0                       # Write request sizes (log2)
system.mem_ctrls.writePktSize::2                    0                       # Write request sizes (log2)
system.mem_ctrls.writePktSize::3                    0                       # Write request sizes (log2)
system.mem_ctrls.writePktSize::4                    0                       # Write request sizes (log2)
system.mem_ctrls.writePktSize::5                    0                       # Write request sizes (log2)
system.mem_ctrls.writePktSize::6                    0                       # Write request sizes (log2)
system.mem_ctrls.rdQLenPdf::0                     472                       # What read queue length does an incoming req see
system.mem_ctrls.rdQLenPdf::1                     533                       # What read queue length does an incoming req see
system.mem_ctrls.rdQLenPdf::2                      96                       # What read queue length does an incoming req see
system.mem_ctrls.rdQLenPdf::3                      44                       # What read queue length does an incoming req see
system.mem_ctrls.rdQLenPdf::4                      28                       # What read queue length does an incoming req see
system.mem_ctrls.rdQLenPdf::5                      16                       # What read queue length does an incoming req see
system.mem_ctrls.rdQLenPdf::6                      14                       # What read queue length does an incoming req see
system.mem_ctrls.rdQLenPdf::7                      15                       # What read queue length does an incoming req see
system.mem_ctrls.rdQLenPdf::8                      12                       # What read queue length does an incoming req see
system.mem_ctrls.rdQLenPdf::9                       3                       # What read queue length does an incoming req see
system.mem_ctrls.rdQLenPdf::10                      1                       # What read queue length does an incoming req see
system.mem_ctrls.rdQLenPdf::11                      0                       # What read queue length does an incoming req see
system.mem_ctrls.rdQLenPdf::12                      0                       # What read queue length does an incoming req see
system.mem_ctrls.rdQLenPdf::13                      0                       # What read queue length does an incoming req see
system.mem_ctrls.rdQLenPdf::14                      0                       # What read queue length does an incoming req see
system.mem_ctrls.rdQLenPdf::15                      0                       # What read queue length does an incoming req see
system.mem_ctrls.rdQLenPdf::16                      0                       # What read queue length does an incoming req see
system.mem_ctrls.rdQLenPdf::17                      0                       # What read queue length does an incoming req see
system.mem_ctrls.rdQLenPdf::18                      0                       # What read queue length does an incoming req see
system.mem_ctrls.rdQLenPdf::19                      0                       # What read queue length does an incoming req see
system.mem_ctrls.rdQLenPdf::20                      0                       # What read queue length does an incoming req see
system.mem_ctrls.rdQLenPdf::21                      0                       # What read queue length does an incoming req see
system.mem_ctrls.rdQLenPdf::22                      0                       # What read queue length does an incoming req see
system.mem_ctrls.rdQLenPdf::23                      0                       # What read queue length does an incoming req see
system.mem_ctrls.rdQLenPdf::24                      0                       # What read queue length does an incoming req see
system.mem_ctrls.rdQLenPdf::25                      0                       # What read queue length does an incoming req see
system.mem_ctrls.rdQLenPdf::26                      0                       # What read queue length does an incoming req see
system.mem_ctrls.rdQLenPdf::27                      0                       # What read queue length does an incoming req see
system.mem_ctrls.rdQLenPdf::28                      0                       # What read queue length does an incoming req see
system.mem_ctrls.rdQLenPdf::29                      0                       # What read queue length does an incoming req see
system.mem_ctrls.rdQLenPdf::30                      0                       # What read queue length does an incoming req see
system.mem_ctrls.rdQLenPdf::31                      0                       # What read queue length does an incoming req see
system.mem_ctrls.wrQLenPdf::0                       0                       # What write queue length does an incoming req see
system.mem_ctrls.wrQLenPdf::1                       0                       # What write queue length does an incoming req see
system.mem_ctrls.wrQLenPdf::2                       0                       # What write queue length does an incoming req see
system.mem_ctrls.wrQLenPdf::3                       0                       # What write queue length does an incoming req see
system.mem_ctrls.wrQLenPdf::4                       0                       # What write queue length does an incoming req see
system.mem_ctrls.wrQLenPdf::5                       0                       # What write queue length does an incoming req see
system.mem_ctrls.wrQLenPdf::6                       0                       # What write queue length does an incoming req see
system.mem_ctrls.wrQLenPdf::7                       0                       # What write queue length does an incoming req see
system.mem_ctrls.wrQLenPdf::8                       0                       # What write queue length does an incoming req see
system.mem_ctrls.wrQLenPdf::9                       0                       # What write queue length does an incoming req see
system.mem_ctrls.wrQLenPdf::10                      0                       # What write queue length does an incoming req see
system.mem_ctrls.wrQLenPdf::11                      0                       # What write queue length does an incoming req see
system.mem_ctrls.wrQLenPdf::12                      0                       # What write queue length does an incoming req see
system.mem_ctrls.wrQLenPdf::13                      0                       # What write queue length does an incoming req see
system.mem_ctrls.wrQLenPdf::14                      0                       # What write queue length does an incoming req see
system.mem_ctrls.wrQLenPdf::15                      0                       # What write queue length does an incoming req see
system.mem_ctrls.wrQLenPdf::16                      0                       # What write queue length does an incoming req see
system.mem_ctrls.wrQLenPdf::17                      0                       # What write queue length does an incoming req see
system.mem_ctrls.wrQLenPdf::18                      0                       # What write queue length does an incoming req see
system.mem_ctrls.wrQLenPdf::19                      0                       # What write queue length does an incoming req see
system.mem_ctrls.wrQLenPdf::20                      0                       # What write queue length does an incoming req see
system.mem_ctrls.wrQLenPdf::21                      0                       # What write queue length does an incoming req see
system.mem_ctrls.wrQLenPdf::22                      0                       # What write queue length does an incoming req see
system.mem_ctrls.wrQLenPdf::23                      0                       # What write queue length does an incoming req see
system.mem_ctrls.wrQLenPdf::24                      0                       # What write queue length does an incoming req see
system.mem_ctrls.wrQLenPdf::25                      0                       # What write queue length does an incoming req see
system.mem_ctrls.wrQLenPdf::26                      0                       # What write queue length does an incoming req see
system.mem_ctrls.wrQLenPdf::27                      0                       # What write queue length does an incoming req see
system.mem_ctrls.wrQLenPdf::28                      0                       # What write queue length does an incoming req see
system.mem_ctrls.wrQLenPdf::29                      0                       # What write queue length does an incoming req see
system.mem_ctrls.wrQLenPdf::30                      0                       # What write queue length does an incoming req see
system.mem_ctrls.wrQLenPdf::31                      0                       # What write queue length does an incoming req see
system.mem_ctrls.wrQLenPdf::32                      0                       # What write queue length does an incoming req see
system.mem_ctrls.wrQLenPdf::33                      0                       # What write queue length does an incoming req see
system.mem_ctrls.wrQLenPdf::34                      0                       # What write queue length does an incoming req see
system.mem_ctrls.wrQLenPdf::35                      0                       # What write queue length does an incoming req see
system.mem_ctrls.wrQLenPdf::36                      0                       # What write queue length does an incoming req see
system.mem_ctrls.wrQLenPdf::37                      0                       # What write queue length does an incoming req see
system.mem_ctrls.wrQLenPdf::38                      0                       # What write queue length does an incoming req see
system.mem_ctrls.wrQLenPdf::39                      0                       # What write queue length does an incoming req see
system.mem_ctrls.wrQLenPdf::40                      0                       # What write queue length does an incoming req see
system.mem_ctrls.wrQLenPdf::41                      0                       # What write queue length does an incoming req see
system.mem_ctrls.wrQLenPdf::42                      0                       # What write queue length does an incoming req see
system.mem_ctrls.wrQLenPdf::43                      0                       # What write queue length does an incoming req see
system.mem_ctrls.wrQLenPdf::44                      0                       # What write queue length does an incoming req see
system.mem_ctrls.wrQLenPdf::45                      0                       # What write queue length does an incoming req see
system.mem_ctrls.wrQLenPdf::46                      0                       # What write queue length does an incoming req see
system.mem_ctrls.wrQLenPdf::47                      0                       # What write queue length does an incoming req see
system.mem_ctrls.wrQLenPdf::48                      0                       # What write queue length does an incoming req see
system.mem_ctrls.wrQLenPdf::49                      0                       # What write queue length does an incoming req see
system.mem_ctrls.wrQLenPdf::50                      0                       # What write queue length does an incoming req see
system.mem_ctrls.wrQLenPdf::51                      0                       # What write queue length does an incoming req see
system.mem_ctrls.wrQLenPdf::52                      0                       # What write queue length does an incoming req see
system.mem_ctrls.wrQLenPdf::53                      0                       # What write queue length does an incoming req see
system.mem_ctrls.wrQLenPdf::54                      0                       # What write queue length does an incoming req see
system.mem_ctrls.wrQLenPdf::55                      0                       # What write queue length does an incoming req see
system.mem_ctrls.wrQLenPdf::56                      0                       # What write queue length does an incoming req see
system.mem_ctrls.wrQLenPdf::57                      0                       # What write queue length does an incoming req see
system.mem_ctrls.wrQLenPdf::58                      0                       # What write queue length does an incoming req see
system.mem_ctrls.wrQLenPdf::59                      0                       # What write queue length does an incoming req see
system.mem_ctrls.wrQLenPdf::60                      0                       # What write queue length does an incoming req see
system.mem_ctrls.wrQLenPdf::61                      0                       # What write queue length does an incoming req see
system.mem_ctrls.wrQLenPdf::62                      0                       # What write queue length does an incoming req see
system.mem_ctrls.wrQLenPdf::63                      0                       # What write queue length does an incoming req see
system.mem_ctrls.bytesPerActivate::samples          244                       # Bytes accessed per row activation
system.mem_ctrls.bytesPerActivate::mean    316.590164                       # Bytes accessed per row activation
system.mem_ctrls.bytesPerActivate::gmean   174.910638                       # Bytes accessed per row activation
system.mem_ctrls.bytesPerActivate::stdev   352.706986                       # Bytes accessed per row activation
system.mem_ctrls.bytesPerActivate::0-127          104     42.62%     42.62% # Bytes accessed per row activation
system.mem_ctrls.bytesPerActivate::128-255           52     21.31%     63.93% # Bytes accessed per row activation
system.mem_ctrls.bytesPerActivate::256-383           20      8.20%     72.13% # Bytes accessed per row activation
system.mem_ctrls.bytesPerActivate::384-511            8      3.28%     75.41% # Bytes accessed per row activation
system.mem_ctrls.bytesPerActivate::512-639            7      2.87%     78.28% # Bytes accessed per row activation
system.mem_ctrls.bytesPerActivate::640-767            8      3.28%     81.56% # Bytes accessed per row activation
system.mem_ctrls.bytesPerActivate::768-895            5      2.05%     83.61% # Bytes accessed per row activation
system.mem_ctrls.bytesPerActivate::896-1023            4      1.64%     85.25% # Bytes accessed per row activation
system.mem_ctrls.bytesPerActivate::1024-1151           36     14.75%    100.00% # Bytes accessed per row activation
system.mem_ctrls.bytesPerActivate::total          244                       # Bytes accessed per row activation
system.mem_ctrls.totQLat                     19202274                       # Total ticks spent queuing
system.mem_ctrls.totMemAccLat                42339774                       # Total ticks spent from burst creation until serviced by the DRAM
system.mem_ctrls.totBusLat                    6170000                       # Total ticks spent in databus transfers
system.mem_ctrls.avgQLat                     15561.00                       # Average queueing delay per DRAM burst
system.mem_ctrls.avgBusLat                    5000.00                       # Average bus latency per DRAM burst
system.mem_ctrls.avgMemAccLat                34311.00                       # Average memory access latency per DRAM burst
system.mem_ctrls.avgRdBW                      1163.28                       # Average DRAM read bandwidth in MiByte/s
system.mem_ctrls.avgWrBW                         0.00                       # Average achieved write bandwidth in MiByte/s
system.mem_ctrls.avgRdBWSys                   1163.28                       # Average system read bandwidth in MiByte/s
system.mem_ctrls.avgWrBWSys                      0.00                       # Average system write bandwidth in MiByte/s
system.mem_ctrls.peakBW                      12800.00                       # Theoretical peak bandwidth in MiByte/s
system.mem_ctrls.busUtil                         9.09                       # Data bus utilization in percentage
system.mem_ctrls.busUtilRead                     9.09                       # Data bus utilization in percentage for reads
system.mem_ctrls.busUtilWrite                    0.00                       # Data bus utilization in percentage for writes
system.mem_ctrls.avgRdQLen                       1.71                       # Average read queue length when enqueuing
system.mem_ctrls.avgWrQLen                       0.00                       # Average write queue length when enqueuing
system.mem_ctrls.readRowHits                      981                       # Number of row buffer hits during reads
system.mem_ctrls.writeRowHits                       0                       # Number of row buffer hits during writes
system.mem_ctrls.readRowHitRate                 79.50                       # Row buffer hit rate for reads
system.mem_ctrls.writeRowHitRate                  nan                       # Row buffer hit rate for writes
system.mem_ctrls.avgGap                      54985.01                       # Average gap between requests
system.mem_ctrls.pageHitRate                    79.50                       # Row buffer hit rate, read and write combined
system.mem_ctrls_0.actEnergy                  1580040                       # Energy for activate commands per rank (pJ)
system.mem_ctrls_0.preEnergy                   862125                       # Energy for precharge commands per rank (pJ)
system.mem_ctrls_0.readEnergy                 8127600                       # Energy for read commands per rank (pJ)
system.mem_ctrls_0.writeEnergy                      0                       # Energy for write commands per rank (pJ)
system.mem_ctrls_0.refreshEnergy              4068480                       # Energy for refresh commands per rank (pJ)
system.mem_ctrls_0.actBackEnergy             39467655                       # Energy for active background per rank (pJ)
system.mem_ctrls_0.preBackEnergy              2909250                       # Energy for precharge background per rank (pJ)
system.mem_ctrls_0.totalEnergy               57015150                       # Total energy per rank (pJ)
system.mem_ctrls_0.averagePower            911.513189                       # Core power per rank (mW)
system.mem_ctrls_0.memoryStateTime::IDLE      6478250                       # Time in different power states
system.mem_ctrls_0.memoryStateTime::REF       2080000                       # Time in different power states
system.mem_ctrls_0.memoryStateTime::PRE_PDN            0                       # Time in different power states
system.mem_ctrls_0.memoryStateTime::ACT      55856750                       # Time in different power states
system.mem_ctrls_0.memoryStateTime::ACT_PDN            0                       # Time in different power states
system.mem_ctrls_1.actEnergy                   189000                       # Energy for activate commands per rank (pJ)
system.mem_ctrls_1.preEnergy                   103125                       # Energy for precharge commands per rank (pJ)
system.mem_ctrls_1.readEnergy                 1037400                       # Energy for read commands per rank (pJ)
system.mem_ctrls_1.writeEnergy                      0                       # Energy for write commands per rank (pJ)
system.mem_ctrls_1.refreshEnergy              4068480                       # Energy for refresh commands per rank (pJ)
system.mem_ctrls_1.actBackEnergy             24070815                       # Energy for active background per rank (pJ)
system.mem_ctrls_1.preBackEnergy             16407000                       # Energy for precharge background per rank (pJ)
system.mem_ctrls_1.totalEnergy               45875820                       # Total energy per rank (pJ)
system.mem_ctrls_1.averagePower            733.587639                       # Core power per rank (mW)
system.mem_ctrls_1.memoryStateTime::IDLE     29858500                       # Time in different power states
system.mem_ctrls_1.memoryStateTime::REF       2080000                       # Time in different power states
system.mem_ctrls_1.memoryStateTime::PRE_PDN            0                       # Time in different power states
system.mem_ctrls_1.memoryStateTime::ACT      33307000                       # Time in different power states
system.mem_ctrls_1.memoryStateTime::ACT_PDN            0                       # Time in different power states
system.cpu0.branchPred.lookups                  14490                       # Number of BP lookups
system.cpu0.branchPred.condPredicted            12245                       # Number of conditional branches predicted
system.cpu0.branchPred.condIncorrect             1450                       # Number of conditional branches incorrect
system.cpu0.branchPred.BTBLookups                9319                       # Number of BTB lookups
system.cpu0.branchPred.BTBHits                   8566                       # Number of BTB hits
system.cpu0.branchPred.BTBCorrect                   0                       # Number of correct BTB predictions (this stat may not work properly.
system.cpu0.branchPred.BTBHitPct            91.919734                       # BTB Hit Percentage
system.cpu0.branchPred.usedRAS                    756                       # Number of times the RAS was used to get a target.
system.cpu0.branchPred.RASInCorrect                 7                       # Number of incorrect RAS predictions.
system.cpu_voltage_domain.voltage                   1                       # Voltage in Volts
system.cpu_clk_domain.clock                       500                       # Clock period in ticks
system.cpu0.dstage2_mmu.stage2_tlb.walker.walks            0                       # Table walker walks requested
system.cpu0.dstage2_mmu.stage2_tlb.walker.walkRequestOrigin_Requested::Data            0                       # Table walker requests started/completed, data/inst
system.cpu0.dstage2_mmu.stage2_tlb.walker.walkRequestOrigin_Requested::Inst            0                       # Table walker requests started/completed, data/inst
system.cpu0.dstage2_mmu.stage2_tlb.walker.walkRequestOrigin_Requested::total            0                       # Table walker requests started/completed, data/inst
system.cpu0.dstage2_mmu.stage2_tlb.walker.walkRequestOrigin_Completed::Data            0                       # Table walker requests started/completed, data/inst
system.cpu0.dstage2_mmu.stage2_tlb.walker.walkRequestOrigin_Completed::Inst            0                       # Table walker requests started/completed, data/inst
system.cpu0.dstage2_mmu.stage2_tlb.walker.walkRequestOrigin_Completed::total            0                       # Table walker requests started/completed, data/inst
system.cpu0.dstage2_mmu.stage2_tlb.walker.walkRequestOrigin::total            0                       # Table walker requests started/completed, data/inst
system.cpu0.dstage2_mmu.stage2_tlb.inst_hits            0                       # ITB inst hits
system.cpu0.dstage2_mmu.stage2_tlb.inst_misses            0                       # ITB inst misses
system.cpu0.dstage2_mmu.stage2_tlb.read_hits            0                       # DTB read hits
system.cpu0.dstage2_mmu.stage2_tlb.read_misses            0                       # DTB read misses
system.cpu0.dstage2_mmu.stage2_tlb.write_hits            0                       # DTB write hits
system.cpu0.dstage2_mmu.stage2_tlb.write_misses            0                       # DTB write misses
system.cpu0.dstage2_mmu.stage2_tlb.flush_tlb            0                       # Number of times complete TLB was flushed
system.cpu0.dstage2_mmu.stage2_tlb.flush_tlb_mva            0                       # Number of times TLB was flushed by MVA
system.cpu0.dstage2_mmu.stage2_tlb.flush_tlb_mva_asid            0                       # Number of times TLB was flushed by MVA & ASID
system.cpu0.dstage2_mmu.stage2_tlb.flush_tlb_asid            0                       # Number of times TLB was flushed by ASID
system.cpu0.dstage2_mmu.stage2_tlb.flush_entries            0                       # Number of entries that have been flushed from TLB
system.cpu0.dstage2_mmu.stage2_tlb.align_faults            0                       # Number of TLB faults due to alignment restrictions
system.cpu0.dstage2_mmu.stage2_tlb.prefetch_faults            0                       # Number of TLB faults due to prefetch
system.cpu0.dstage2_mmu.stage2_tlb.domain_faults            0                       # Number of TLB faults due to domain restrictions
system.cpu0.dstage2_mmu.stage2_tlb.perms_faults            0                       # Number of TLB faults due to permissions restrictions
system.cpu0.dstage2_mmu.stage2_tlb.read_accesses            0                       # DTB read accesses
system.cpu0.dstage2_mmu.stage2_tlb.write_accesses            0                       # DTB write accesses
system.cpu0.dstage2_mmu.stage2_tlb.inst_accesses            0                       # ITB inst accesses
system.cpu0.dstage2_mmu.stage2_tlb.hits             0                       # DTB hits
system.cpu0.dstage2_mmu.stage2_tlb.misses            0                       # DTB misses
system.cpu0.dstage2_mmu.stage2_tlb.accesses            0                       # DTB accesses
system.cpu0.dtb.walker.walks                        0                       # Table walker walks requested
system.cpu0.dtb.walker.walkRequestOrigin_Requested::Data            0                       # Table walker requests started/completed, data/inst
system.cpu0.dtb.walker.walkRequestOrigin_Requested::Inst            0                       # Table walker requests started/completed, data/inst
system.cpu0.dtb.walker.walkRequestOrigin_Requested::total            0                       # Table walker requests started/completed, data/inst
system.cpu0.dtb.walker.walkRequestOrigin_Completed::Data            0                       # Table walker requests started/completed, data/inst
system.cpu0.dtb.walker.walkRequestOrigin_Completed::Inst            0                       # Table walker requests started/completed, data/inst
system.cpu0.dtb.walker.walkRequestOrigin_Completed::total            0                       # Table walker requests started/completed, data/inst
system.cpu0.dtb.walker.walkRequestOrigin::total            0                       # Table walker requests started/completed, data/inst
system.cpu0.dtb.inst_hits                           0                       # ITB inst hits
system.cpu0.dtb.inst_misses                         0                       # ITB inst misses
system.cpu0.dtb.read_hits                           0                       # DTB read hits
system.cpu0.dtb.read_misses                         0                       # DTB read misses
system.cpu0.dtb.write_hits                          0                       # DTB write hits
system.cpu0.dtb.write_misses                        0                       # DTB write misses
system.cpu0.dtb.flush_tlb                           0                       # Number of times complete TLB was flushed
system.cpu0.dtb.flush_tlb_mva                       0                       # Number of times TLB was flushed by MVA
system.cpu0.dtb.flush_tlb_mva_asid                  0                       # Number of times TLB was flushed by MVA & ASID
system.cpu0.dtb.flush_tlb_asid                      0                       # Number of times TLB was flushed by ASID
system.cpu0.dtb.flush_entries                       0                       # Number of entries that have been flushed from TLB
system.cpu0.dtb.align_faults                        0                       # Number of TLB faults due to alignment restrictions
system.cpu0.dtb.prefetch_faults                     0                       # Number of TLB faults due to prefetch
system.cpu0.dtb.domain_faults                       0                       # Number of TLB faults due to domain restrictions
system.cpu0.dtb.perms_faults                        0                       # Number of TLB faults due to permissions restrictions
system.cpu0.dtb.read_accesses                       0                       # DTB read accesses
system.cpu0.dtb.write_accesses                      0                       # DTB write accesses
system.cpu0.dtb.inst_accesses                       0                       # ITB inst accesses
system.cpu0.dtb.hits                                0                       # DTB hits
system.cpu0.dtb.misses                              0                       # DTB misses
system.cpu0.dtb.accesses                            0                       # DTB accesses
system.cpu0.istage2_mmu.stage2_tlb.walker.walks            0                       # Table walker walks requested
system.cpu0.istage2_mmu.stage2_tlb.walker.walkRequestOrigin_Requested::Data            0                       # Table walker requests started/completed, data/inst
system.cpu0.istage2_mmu.stage2_tlb.walker.walkRequestOrigin_Requested::Inst            0                       # Table walker requests started/completed, data/inst
system.cpu0.istage2_mmu.stage2_tlb.walker.walkRequestOrigin_Requested::total            0                       # Table walker requests started/completed, data/inst
system.cpu0.istage2_mmu.stage2_tlb.walker.walkRequestOrigin_Completed::Data            0                       # Table walker requests started/completed, data/inst
system.cpu0.istage2_mmu.stage2_tlb.walker.walkRequestOrigin_Completed::Inst            0                       # Table walker requests started/completed, data/inst
system.cpu0.istage2_mmu.stage2_tlb.walker.walkRequestOrigin_Completed::total            0                       # Table walker requests started/completed, data/inst
system.cpu0.istage2_mmu.stage2_tlb.walker.walkRequestOrigin::total            0                       # Table walker requests started/completed, data/inst
system.cpu0.istage2_mmu.stage2_tlb.inst_hits            0                       # ITB inst hits
system.cpu0.istage2_mmu.stage2_tlb.inst_misses            0                       # ITB inst misses
system.cpu0.istage2_mmu.stage2_tlb.read_hits            0                       # DTB read hits
system.cpu0.istage2_mmu.stage2_tlb.read_misses            0                       # DTB read misses
system.cpu0.istage2_mmu.stage2_tlb.write_hits            0                       # DTB write hits
system.cpu0.istage2_mmu.stage2_tlb.write_misses            0                       # DTB write misses
system.cpu0.istage2_mmu.stage2_tlb.flush_tlb            0                       # Number of times complete TLB was flushed
system.cpu0.istage2_mmu.stage2_tlb.flush_tlb_mva            0                       # Number of times TLB was flushed by MVA
system.cpu0.istage2_mmu.stage2_tlb.flush_tlb_mva_asid            0                       # Number of times TLB was flushed by MVA & ASID
system.cpu0.istage2_mmu.stage2_tlb.flush_tlb_asid            0                       # Number of times TLB was flushed by ASID
system.cpu0.istage2_mmu.stage2_tlb.flush_entries            0                       # Number of entries that have been flushed from TLB
system.cpu0.istage2_mmu.stage2_tlb.align_faults            0                       # Number of TLB faults due to alignment restrictions
system.cpu0.istage2_mmu.stage2_tlb.prefetch_faults            0                       # Number of TLB faults due to prefetch
system.cpu0.istage2_mmu.stage2_tlb.domain_faults            0                       # Number of TLB faults due to domain restrictions
system.cpu0.istage2_mmu.stage2_tlb.perms_faults            0                       # Number of TLB faults due to permissions restrictions
system.cpu0.istage2_mmu.stage2_tlb.read_accesses            0                       # DTB read accesses
system.cpu0.istage2_mmu.stage2_tlb.write_accesses            0                       # DTB write accesses
system.cpu0.istage2_mmu.stage2_tlb.inst_accesses            0                       # ITB inst accesses
system.cpu0.istage2_mmu.stage2_tlb.hits             0                       # DTB hits
system.cpu0.istage2_mmu.stage2_tlb.misses            0                       # DTB misses
system.cpu0.istage2_mmu.stage2_tlb.accesses            0                       # DTB accesses
system.cpu0.itb.walker.walks                        0                       # Table walker walks requested
system.cpu0.itb.walker.walkRequestOrigin_Requested::Data            0                       # Table walker requests started/completed, data/inst
system.cpu0.itb.walker.walkRequestOrigin_Requested::Inst            0                       # Table walker requests started/completed, data/inst
system.cpu0.itb.walker.walkRequestOrigin_Requested::total            0                       # Table walker requests started/completed, data/inst
system.cpu0.itb.walker.walkRequestOrigin_Completed::Data            0                       # Table walker requests started/completed, data/inst
system.cpu0.itb.walker.walkRequestOrigin_Completed::Inst            0                       # Table walker requests started/completed, data/inst
system.cpu0.itb.walker.walkRequestOrigin_Completed::total            0                       # Table walker requests started/completed, data/inst
system.cpu0.itb.walker.walkRequestOrigin::total            0                       # Table walker requests started/completed, data/inst
system.cpu0.itb.inst_hits                           0                       # ITB inst hits
system.cpu0.itb.inst_misses                         0                       # ITB inst misses
system.cpu0.itb.read_hits                           0                       # DTB read hits
system.cpu0.itb.read_misses                         0                       # DTB read misses
system.cpu0.itb.write_hits                          0                       # DTB write hits
system.cpu0.itb.write_misses                        0                       # DTB write misses
system.cpu0.itb.flush_tlb                           0                       # Number of times complete TLB was flushed
system.cpu0.itb.flush_tlb_mva                       0                       # Number of times TLB was flushed by MVA
system.cpu0.itb.flush_tlb_mva_asid                  0                       # Number of times TLB was flushed by MVA & ASID
system.cpu0.itb.flush_tlb_asid                      0                       # Number of times TLB was flushed by ASID
system.cpu0.itb.flush_entries                       0                       # Number of entries that have been flushed from TLB
system.cpu0.itb.align_faults                        0                       # Number of TLB faults due to alignment restrictions
system.cpu0.itb.prefetch_faults                     0                       # Number of TLB faults due to prefetch
system.cpu0.itb.domain_faults                       0                       # Number of TLB faults due to domain restrictions
system.cpu0.itb.perms_faults                        0                       # Number of TLB faults due to permissions restrictions
system.cpu0.itb.read_accesses                       0                       # DTB read accesses
system.cpu0.itb.write_accesses                      0                       # DTB write accesses
system.cpu0.itb.inst_accesses                       0                       # ITB inst accesses
system.cpu0.itb.hits                                0                       # DTB hits
system.cpu0.itb.misses                              0                       # DTB misses
system.cpu0.itb.accesses                            0                       # DTB accesses
system.cpu0.workload.num_syscalls                 126                       # Number of system calls
system.cpu0.numCycles                          135782                       # number of cpu cycles simulated
system.cpu0.numWorkItemsStarted                     0                       # number of work items this cpu started
system.cpu0.numWorkItemsCompleted                   0                       # number of work items this cpu completed
system.cpu0.fetch.icacheStallCycles             14488                       # Number of cycles fetch is stalled on an Icache miss
system.cpu0.fetch.Insts                        130303                       # Number of instructions fetch has processed
system.cpu0.fetch.Branches                      14490                       # Number of branches that fetch encountered
system.cpu0.fetch.predictedBranches              9322                       # Number of branches that fetch has predicted taken
system.cpu0.fetch.Cycles                        79146                       # Number of cycles fetch has run and was not squashing or blocked
system.cpu0.fetch.SquashCycles                   2983                       # Number of cycles fetch has spent squashing
system.cpu0.fetch.MiscStallCycles                 383                       # Number of cycles fetch has spent waiting on interrupts, or bad addresses, or out of MSHRs
system.cpu0.fetch.PendingTrapStallCycles          109                       # Number of stall cycles due to pending traps
system.cpu0.fetch.IcacheWaitRetryStallCycles          562                       # Number of stall cycles due to full MSHR
system.cpu0.fetch.CacheLines                    38363                       # Number of cache lines fetched
system.cpu0.fetch.IcacheSquashes                  350                       # Number of outstanding Icache misses that were squashed
system.cpu0.fetch.rateDist::samples             96179                       # Number of instructions fetched each cycle (Total)
system.cpu0.fetch.rateDist::mean             1.499693                       # Number of instructions fetched each cycle (Total)
system.cpu0.fetch.rateDist::stdev            1.279125                       # Number of instructions fetched each cycle (Total)
system.cpu0.fetch.rateDist::underflows              0      0.00%      0.00% # Number of instructions fetched each cycle (Total)
system.cpu0.fetch.rateDist::0                   30012     31.20%     31.20% # Number of instructions fetched each cycle (Total)
system.cpu0.fetch.rateDist::1                   24742     25.72%     56.93% # Number of instructions fetched each cycle (Total)
system.cpu0.fetch.rateDist::2                    4778      4.97%     61.90% # Number of instructions fetched each cycle (Total)
system.cpu0.fetch.rateDist::3                   36647     38.10%    100.00% # Number of instructions fetched each cycle (Total)
system.cpu0.fetch.rateDist::overflows               0      0.00%    100.00% # Number of instructions fetched each cycle (Total)
system.cpu0.fetch.rateDist::min_value               0                       # Number of instructions fetched each cycle (Total)
system.cpu0.fetch.rateDist::max_value               3                       # Number of instructions fetched each cycle (Total)
system.cpu0.fetch.rateDist::total               96179                       # Number of instructions fetched each cycle (Total)
system.cpu0.fetch.branchRate                 0.106715                       # Number of branch fetches per cycle
system.cpu0.fetch.rate                       0.959649                       # Number of inst fetches per cycle
system.cpu0.decode.IdleCycles                   14208                       # Number of cycles decode is idle
system.cpu0.decode.BlockedCycles                19094                       # Number of cycles decode is blocked
system.cpu0.decode.RunCycles                    59579                       # Number of cycles decode is running
system.cpu0.decode.UnblockCycles                 2125                       # Number of cycles decode is unblocking
system.cpu0.decode.SquashCycles                  1173                       # Number of cycles decode is squashing
system.cpu0.decode.BranchResolved                 898                       # Number of times decode resolved a branch
system.cpu0.decode.BranchMispred                  340                       # Number of times decode detected a branch misprediction
system.cpu0.decode.DecodedInsts                133541                       # Number of instructions handled by decode
system.cpu0.decode.SquashedInsts                 5274                       # Number of squashed instructions handled by decode
system.cpu0.rename.SquashCycles                  1173                       # Number of cycles rename is squashing
system.cpu0.rename.IdleCycles                   18779                       # Number of cycles rename is idle
system.cpu0.rename.BlockCycles                   2141                       # Number of cycles rename is blocking
system.cpu0.rename.serializeStallCycles          8642                       # count of cycles rename stalled for serializing inst
system.cpu0.rename.RunCycles                    57121                       # Number of cycles rename is running
system.cpu0.rename.UnblockCycles                 8323                       # Number of cycles rename is unblocking
system.cpu0.rename.RenamedInsts                129362                       # Number of instructions processed by rename
system.cpu0.rename.SquashedInsts                 1868                       # Number of squashed instructions processed by rename
system.cpu0.rename.ROBFullEvents                   73                       # Number of times rename has blocked due to ROB full
system.cpu0.rename.IQFullEvents                    10                       # Number of times rename has blocked due to IQ full
system.cpu0.rename.LQFullEvents                    11                       # Number of times rename has blocked due to LQ full
system.cpu0.rename.SQFullEvents                  7282                       # Number of times rename has blocked due to SQ full
system.cpu0.rename.RenamedOperands             152685                       # Number of destination operands rename has renamed
system.cpu0.rename.RenameLookups               638628                       # Number of register rename lookups that rename has made
system.cpu0.rename.int_rename_lookups          200773                       # Number of integer rename lookups
system.cpu0.rename.fp_rename_lookups               22                       # Number of floating rename lookups
system.cpu0.rename.CommittedMaps               140223                       # Number of HB maps that are committed
system.cpu0.rename.UndoneMaps                   12462                       # Number of HB maps that are undone due to squashing
system.cpu0.rename.serializingInsts               112                       # count of serializing insts renamed
system.cpu0.rename.tempSerializingInsts           110                       # count of temporary serializing insts renamed
system.cpu0.rename.skidInsts                     4533                       # count of insts added to the skid buffer
system.cpu0.memDep0.insertedLoads               22426                       # Number of loads inserted to the mem dependence unit.
system.cpu0.memDep0.insertedStores              15561                       # Number of stores inserted to the mem dependence unit.
system.cpu0.memDep0.conflictingLoads              232                       # Number of conflicting loads.
system.cpu0.memDep0.conflictingStores             115                       # Number of conflicting stores.
system.cpu0.iq.iqInstsAdded                    127305                       # Number of instructions added to the IQ (excludes non-spec)
system.cpu0.iq.iqNonSpecInstsAdded                247                       # Number of non-speculative instructions added to the IQ
system.cpu0.iq.iqInstsIssued                   124039                       # Number of instructions issued
system.cpu0.iq.iqSquashedInstsIssued              531                       # Number of squashed instructions issued
system.cpu0.iq.iqSquashedInstsExamined           9558                       # Number of squashed instructions iterated over during squash; mainly for profiling
system.cpu0.iq.iqSquashedOperandsExamined        24219                       # Number of squashed operands that are examined and possibly removed from graph
system.cpu0.iq.iqSquashedNonSpecRemoved            47                       # Number of squashed non-spec instructions that were removed
system.cpu0.iq.issued_per_cycle::samples        96179                       # Number of insts issued each cycle
system.cpu0.iq.issued_per_cycle::mean        1.289668                       # Number of insts issued each cycle
system.cpu0.iq.issued_per_cycle::stdev       1.265006                       # Number of insts issued each cycle
system.cpu0.iq.issued_per_cycle::underflows            0      0.00%      0.00% # Number of insts issued each cycle
system.cpu0.iq.issued_per_cycle::0              39234     40.79%     40.79% # Number of insts issued each cycle
system.cpu0.iq.issued_per_cycle::1              16097     16.74%     57.53% # Number of insts issued each cycle
system.cpu0.iq.issued_per_cycle::2              16178     16.82%     74.35% # Number of insts issued each cycle
system.cpu0.iq.issued_per_cycle::3              23097     24.01%     98.36% # Number of insts issued each cycle
system.cpu0.iq.issued_per_cycle::4               1570      1.63%    100.00% # Number of insts issued each cycle
system.cpu0.iq.issued_per_cycle::5                  3      0.00%    100.00% # Number of insts issued each cycle
system.cpu0.iq.issued_per_cycle::6                  0      0.00%    100.00% # Number of insts issued each cycle
system.cpu0.iq.issued_per_cycle::7                  0      0.00%    100.00% # Number of insts issued each cycle
system.cpu0.iq.issued_per_cycle::8                  0      0.00%    100.00% # Number of insts issued each cycle
system.cpu0.iq.issued_per_cycle::overflows            0      0.00%    100.00% # Number of insts issued each cycle
system.cpu0.iq.issued_per_cycle::min_value            0                       # Number of insts issued each cycle
system.cpu0.iq.issued_per_cycle::max_value            5                       # Number of insts issued each cycle
system.cpu0.iq.issued_per_cycle::total          96179                       # Number of insts issued each cycle
system.cpu0.iq.fu_full::No_OpClass                  0      0.00%      0.00% # attempts to use FU when none available
system.cpu0.iq.fu_full::IntAlu                   2694     13.98%     13.98% # attempts to use FU when none available
system.cpu0.iq.fu_full::IntMult                   248      1.29%     15.27% # attempts to use FU when none available
system.cpu0.iq.fu_full::IntDiv                      0      0.00%     15.27% # attempts to use FU when none available
system.cpu0.iq.fu_full::FloatAdd                    0      0.00%     15.27% # attempts to use FU when none available
system.cpu0.iq.fu_full::FloatCmp                    0      0.00%     15.27% # attempts to use FU when none available
system.cpu0.iq.fu_full::FloatCvt                    0      0.00%     15.27% # attempts to use FU when none available
system.cpu0.iq.fu_full::FloatMult                   0      0.00%     15.27% # attempts to use FU when none available
system.cpu0.iq.fu_full::FloatDiv                    0      0.00%     15.27% # attempts to use FU when none available
system.cpu0.iq.fu_full::FloatSqrt                   0      0.00%     15.27% # attempts to use FU when none available
system.cpu0.iq.fu_full::SimdAdd                     0      0.00%     15.27% # attempts to use FU when none available
system.cpu0.iq.fu_full::SimdAddAcc                  0      0.00%     15.27% # attempts to use FU when none available
system.cpu0.iq.fu_full::SimdAlu                     0      0.00%     15.27% # attempts to use FU when none available
system.cpu0.iq.fu_full::SimdCmp                     0      0.00%     15.27% # attempts to use FU when none available
system.cpu0.iq.fu_full::SimdCvt                     0      0.00%     15.27% # attempts to use FU when none available
system.cpu0.iq.fu_full::SimdMisc                    0      0.00%     15.27% # attempts to use FU when none available
system.cpu0.iq.fu_full::SimdMult                    0      0.00%     15.27% # attempts to use FU when none available
system.cpu0.iq.fu_full::SimdMultAcc                 0      0.00%     15.27% # attempts to use FU when none available
system.cpu0.iq.fu_full::SimdShift                   0      0.00%     15.27% # attempts to use FU when none available
system.cpu0.iq.fu_full::SimdShiftAcc                0      0.00%     15.27% # attempts to use FU when none available
system.cpu0.iq.fu_full::SimdSqrt                    0      0.00%     15.27% # attempts to use FU when none available
system.cpu0.iq.fu_full::SimdFloatAdd                0      0.00%     15.27% # attempts to use FU when none available
system.cpu0.iq.fu_full::SimdFloatAlu                0      0.00%     15.27% # attempts to use FU when none available
system.cpu0.iq.fu_full::SimdFloatCmp                0      0.00%     15.27% # attempts to use FU when none available
system.cpu0.iq.fu_full::SimdFloatCvt                0      0.00%     15.27% # attempts to use FU when none available
system.cpu0.iq.fu_full::SimdFloatDiv                0      0.00%     15.27% # attempts to use FU when none available
system.cpu0.iq.fu_full::SimdFloatMisc               0      0.00%     15.27% # attempts to use FU when none available
system.cpu0.iq.fu_full::SimdFloatMult               0      0.00%     15.27% # attempts to use FU when none available
system.cpu0.iq.fu_full::SimdFloatMultAcc            0      0.00%     15.27% # attempts to use FU when none available
system.cpu0.iq.fu_full::SimdFloatSqrt               0      0.00%     15.27% # attempts to use FU when none available
system.cpu0.iq.fu_full::MemRead                  9930     51.53%     66.79% # attempts to use FU when none available
system.cpu0.iq.fu_full::MemWrite                 6400     33.21%    100.00% # attempts to use FU when none available
system.cpu0.iq.fu_full::IprAccess                   0      0.00%    100.00% # attempts to use FU when none available
system.cpu0.iq.fu_full::InstPrefetch                0      0.00%    100.00% # attempts to use FU when none available
system.cpu0.iq.FU_type_0::No_OpClass                0      0.00%      0.00% # Type of FU issued
system.cpu0.iq.FU_type_0::IntAlu                72610     58.54%     58.54% # Type of FU issued
system.cpu0.iq.FU_type_0::IntMult               14432     11.64%     70.17% # Type of FU issued
system.cpu0.iq.FU_type_0::IntDiv                    0      0.00%     70.17% # Type of FU issued
system.cpu0.iq.FU_type_0::FloatAdd                  0      0.00%     70.17% # Type of FU issued
system.cpu0.iq.FU_type_0::FloatCmp                  0      0.00%     70.17% # Type of FU issued
system.cpu0.iq.FU_type_0::FloatCvt                  0      0.00%     70.17% # Type of FU issued
system.cpu0.iq.FU_type_0::FloatMult                 0      0.00%     70.17% # Type of FU issued
system.cpu0.iq.FU_type_0::FloatDiv                  0      0.00%     70.17% # Type of FU issued
system.cpu0.iq.FU_type_0::FloatSqrt                 0      0.00%     70.17% # Type of FU issued
system.cpu0.iq.FU_type_0::SimdAdd                   0      0.00%     70.17% # Type of FU issued
system.cpu0.iq.FU_type_0::SimdAddAcc                0      0.00%     70.17% # Type of FU issued
system.cpu0.iq.FU_type_0::SimdAlu                   0      0.00%     70.17% # Type of FU issued
system.cpu0.iq.FU_type_0::SimdCmp                   0      0.00%     70.17% # Type of FU issued
system.cpu0.iq.FU_type_0::SimdCvt                   0      0.00%     70.17% # Type of FU issued
system.cpu0.iq.FU_type_0::SimdMisc                  0      0.00%     70.17% # Type of FU issued
system.cpu0.iq.FU_type_0::SimdMult                  0      0.00%     70.17% # Type of FU issued
system.cpu0.iq.FU_type_0::SimdMultAcc               0      0.00%     70.17% # Type of FU issued
system.cpu0.iq.FU_type_0::SimdShift                 0      0.00%     70.17% # Type of FU issued
system.cpu0.iq.FU_type_0::SimdShiftAcc              0      0.00%     70.17% # Type of FU issued
system.cpu0.iq.FU_type_0::SimdSqrt                  0      0.00%     70.17% # Type of FU issued
system.cpu0.iq.FU_type_0::SimdFloatAdd              0      0.00%     70.17% # Type of FU issued
system.cpu0.iq.FU_type_0::SimdFloatAlu              0      0.00%     70.17% # Type of FU issued
system.cpu0.iq.FU_type_0::SimdFloatCmp              0      0.00%     70.17% # Type of FU issued
system.cpu0.iq.FU_type_0::SimdFloatCvt              0      0.00%     70.17% # Type of FU issued
system.cpu0.iq.FU_type_0::SimdFloatDiv              0      0.00%     70.17% # Type of FU issued
system.cpu0.iq.FU_type_0::SimdFloatMisc             3      0.00%     70.18% # Type of FU issued
system.cpu0.iq.FU_type_0::SimdFloatMult             0      0.00%     70.18% # Type of FU issued
system.cpu0.iq.FU_type_0::SimdFloatMultAcc            0      0.00%     70.18% # Type of FU issued
system.cpu0.iq.FU_type_0::SimdFloatSqrt             0      0.00%     70.18% # Type of FU issued
system.cpu0.iq.FU_type_0::MemRead               21939     17.69%     87.86% # Type of FU issued
system.cpu0.iq.FU_type_0::MemWrite              15055     12.14%    100.00% # Type of FU issued
system.cpu0.iq.FU_type_0::IprAccess                 0      0.00%    100.00% # Type of FU issued
system.cpu0.iq.FU_type_0::InstPrefetch              0      0.00%    100.00% # Type of FU issued
system.cpu0.iq.FU_type_0::total                124039                       # Type of FU issued
system.cpu0.iq.rate                          0.913516                       # Inst issue rate
system.cpu0.iq.fu_busy_cnt                      19272                       # FU busy when requested
system.cpu0.iq.fu_busy_rate                  0.155370                       # FU busy rate (busy events/executed inst)
system.cpu0.iq.int_inst_queue_reads            363982                       # Number of integer instruction queue reads
system.cpu0.iq.int_inst_queue_writes           137099                       # Number of integer instruction queue writes
system.cpu0.iq.int_inst_queue_wakeup_accesses       121404                       # Number of integer instruction queue wakeup accesses
system.cpu0.iq.fp_inst_queue_reads                 78                       # Number of floating instruction queue reads
system.cpu0.iq.fp_inst_queue_writes                28                       # Number of floating instruction queue writes
system.cpu0.iq.fp_inst_queue_wakeup_accesses           28                       # Number of floating instruction queue wakeup accesses
system.cpu0.iq.int_alu_accesses                143261                       # Number of integer alu accesses
system.cpu0.iq.fp_alu_accesses                     50                       # Number of floating point alu accesses
system.cpu0.iew.lsq.thread0.forwLoads              53                       # Number of loads that had data forwarded from stores
system.cpu0.iew.lsq.thread0.invAddrLoads            0                       # Number of loads ignored due to an invalid address
system.cpu0.iew.lsq.thread0.squashedLoads         2297                       # Number of loads squashed
system.cpu0.iew.lsq.thread0.ignoredResponses            0                       # Number of memory responses ignored because the instruction is squashed
system.cpu0.iew.lsq.thread0.memOrderViolation           18                       # Number of memory ordering violations
system.cpu0.iew.lsq.thread0.squashedStores          934                       # Number of stores squashed
system.cpu0.iew.lsq.thread0.invAddrSwpfs            0                       # Number of software prefetches ignored due to an invalid address
system.cpu0.iew.lsq.thread0.blockedLoads            0                       # Number of blocked loads due to partial load-store forwarding
system.cpu0.iew.lsq.thread0.rescheduledLoads            7                       # Number of loads that were rescheduled
system.cpu0.iew.lsq.thread0.cacheBlocked          460                       # Number of times an access to memory failed due to the cache being blocked
system.cpu0.iew.iewIdleCycles                       0                       # Number of cycles IEW is idle
system.cpu0.iew.iewSquashCycles                  1173                       # Number of cycles IEW is squashing
system.cpu0.iew.iewBlockCycles                    549                       # Number of cycles IEW is blocking
system.cpu0.iew.iewUnblockCycles                   85                       # Number of cycles IEW is unblocking
system.cpu0.iew.iewDispatchedInsts             127566                       # Number of instructions dispatched to IQ
system.cpu0.iew.iewDispSquashedInsts                0                       # Number of squashed instructions skipped by dispatch
system.cpu0.iew.iewDispLoadInsts                22426                       # Number of dispatched load instructions
system.cpu0.iew.iewDispStoreInsts               15561                       # Number of dispatched store instructions
system.cpu0.iew.iewDispNonSpecInsts               108                       # Number of dispatched non-speculative instructions
system.cpu0.iew.iewIQFullEvents                     1                       # Number of times the IQ has become full, causing a stall
system.cpu0.iew.iewLSQFullEvents                   84                       # Number of times the LSQ has become full, causing a stall
system.cpu0.iew.memOrderViolationEvents            18                       # Number of memory order violations
system.cpu0.iew.predictedTakenIncorrect           227                       # Number of branches that were predicted taken incorrectly
system.cpu0.iew.predictedNotTakenIncorrect          963                       # Number of branches that were predicted not taken incorrectly
system.cpu0.iew.branchMispredicts                1190                       # Number of branch mispredicts detected at execute
system.cpu0.iew.iewExecutedInsts               122104                       # Number of executed instructions
system.cpu0.iew.iewExecLoadInsts                21184                       # Number of load instructions executed
system.cpu0.iew.iewExecSquashedInsts             1935                       # Number of squashed instructions skipped in execute
system.cpu0.iew.exec_swp                            0                       # number of swp insts executed
system.cpu0.iew.exec_nop                           14                       # number of nop insts executed
system.cpu0.iew.exec_refs                       36065                       # number of memory reference insts executed
system.cpu0.iew.exec_branches                   10980                       # Number of branches executed
system.cpu0.iew.exec_stores                     14881                       # Number of stores executed
system.cpu0.iew.exec_rate                    0.899265                       # Inst execution rate
system.cpu0.iew.wb_sent                        121561                       # cumulative count of insts sent to commit
system.cpu0.iew.wb_count                       121432                       # cumulative count of insts written-back
system.cpu0.iew.wb_producers                    73707                       # num instructions producing a value
system.cpu0.iew.wb_consumers                   119591                       # num instructions consuming a value
system.cpu0.iew.wb_penalized                        0                       # number of instrctions required to write to 'other' IQ
system.cpu0.iew.wb_rate                      0.894316                       # insts written-back per cycle
system.cpu0.iew.wb_fanout                    0.616326                       # average fanout of values written-back
system.cpu0.iew.wb_penalized_rate                   0                       # fraction of instructions written-back that wrote to 'other' IQ
system.cpu0.commit.commitSquashedInsts           7511                       # The number of squashed insts skipped by commit
system.cpu0.commit.commitNonSpecStalls            200                       # The number of times commit has been forced to stall to communicate backwards
system.cpu0.commit.branchMispredicts             1132                       # The number of times a branch was mispredicted
system.cpu0.commit.committed_per_cycle::samples        94578                       # Number of insts commited each cycle
system.cpu0.commit.committed_per_cycle::mean     1.247584                       # Number of insts commited each cycle
system.cpu0.commit.committed_per_cycle::stdev     1.988608                       # Number of insts commited each cycle
system.cpu0.commit.committed_per_cycle::underflows            0      0.00%      0.00% # Number of insts commited each cycle
system.cpu0.commit.committed_per_cycle::0        50161     53.04%     53.04% # Number of insts commited each cycle
system.cpu0.commit.committed_per_cycle::1        17971     19.00%     72.04% # Number of insts commited each cycle
system.cpu0.commit.committed_per_cycle::2        10528     11.13%     83.17% # Number of insts commited each cycle
system.cpu0.commit.committed_per_cycle::3         7078      7.48%     90.65% # Number of insts commited each cycle
system.cpu0.commit.committed_per_cycle::4         1396      1.48%     92.13% # Number of insts commited each cycle
system.cpu0.commit.committed_per_cycle::5          819      0.87%     93.00% # Number of insts commited each cycle
system.cpu0.commit.committed_per_cycle::6         2406      2.54%     95.54% # Number of insts commited each cycle
system.cpu0.commit.committed_per_cycle::7          134      0.14%     95.68% # Number of insts commited each cycle
system.cpu0.commit.committed_per_cycle::8         4085      4.32%    100.00% # Number of insts commited each cycle
system.cpu0.commit.committed_per_cycle::overflows            0      0.00%    100.00% # Number of insts commited each cycle
system.cpu0.commit.committed_per_cycle::min_value            0                       # Number of insts commited each cycle
system.cpu0.commit.committed_per_cycle::max_value            8                       # Number of insts commited each cycle
system.cpu0.commit.committed_per_cycle::total        94578                       # Number of insts commited each cycle
system.cpu0.commit.committedInsts              107739                       # Number of instructions committed
system.cpu0.commit.committedOps                117994                       # Number of ops (including micro ops) committed
system.cpu0.commit.swp_count                        0                       # Number of s/w prefetches committed
system.cpu0.commit.refs                         34756                       # Number of memory references committed
system.cpu0.commit.loads                        20129                       # Number of loads committed
system.cpu0.commit.membars                        113                       # Number of memory barriers committed
[...]
system.l2.ReadExReq_avg_mshr_miss_latency::cpu7.data 153687.500000                       # average ReadExReq mshr miss latency
system.l2.ReadExReq_avg_mshr_miss_latency::total 111057.692308                       # average ReadExReq mshr miss latency
system.l2.demand_avg_mshr_miss_latency::cpu0.inst 61296.842209                       # average overall mshr miss latency
system.l2.demand_avg_mshr_miss_latency::cpu0.data 75816.939891                       # average overall mshr miss latency
system.l2.demand_avg_mshr_miss_latency::cpu1.inst 113583.333333                       # average overall mshr miss latency
system.l2.demand_avg_mshr_miss_latency::cpu1.data       242375                       # average overall mshr miss latency
system.l2.demand_avg_mshr_miss_latency::cpu2.inst 65642.857143                       # average overall mshr miss latency
system.l2.demand_avg_mshr_miss_latency::cpu2.data       169850                       # average overall mshr miss latency
system.l2.demand_avg_mshr_miss_latency::cpu3.inst        52500                       # average overall mshr miss latency
system.l2.demand_avg_mshr_miss_latency::cpu3.data 240062.500000                       # average overall mshr miss latency
system.l2.demand_avg_mshr_miss_latency::cpu4.inst        69900                       # average overall mshr miss latency
system.l2.demand_avg_mshr_miss_latency::cpu4.data       150700                       # average overall mshr miss latency
system.l2.demand_avg_mshr_miss_latency::cpu5.data 201312.500000                       # average overall mshr miss latency
system.l2.demand_avg_mshr_miss_latency::cpu6.data 105937.500000                       # average overall mshr miss latency
system.l2.demand_avg_mshr_miss_latency::cpu7.inst 85812.500000                       # average overall mshr miss latency
system.l2.demand_avg_mshr_miss_latency::cpu7.data 153687.500000                       # average overall mshr miss latency
system.l2.demand_avg_mshr_miss_latency::total 70793.549202                       # average overall mshr miss latency
system.l2.overall_avg_mshr_miss_latency::cpu0.inst 61296.842209                       # average overall mshr miss latency
system.l2.overall_avg_mshr_miss_latency::cpu0.data 75816.939891                       # average overall mshr miss latency
system.l2.overall_avg_mshr_miss_latency::cpu1.inst 113583.333333                       # average overall mshr miss latency
system.l2.overall_avg_mshr_miss_latency::cpu1.data       242375                       # average overall mshr miss latency
system.l2.overall_avg_mshr_miss_latency::cpu2.inst 65642.857143                       # average overall mshr miss latency
system.l2.overall_avg_mshr_miss_latency::cpu2.data       169850                       # average overall mshr miss latency
system.l2.overall_avg_mshr_miss_latency::cpu3.inst        52500                       # average overall mshr miss latency
system.l2.overall_avg_mshr_miss_latency::cpu3.data 240062.500000                       # average overall mshr miss latency
system.l2.overall_avg_mshr_miss_latency::cpu4.inst        69900                       # average overall mshr miss latency
system.l2.overall_avg_mshr_miss_latency::cpu4.data       150700                       # average overall mshr miss latency
system.l2.overall_avg_mshr_miss_latency::cpu5.data 201312.500000                       # average overall mshr miss latency
system.l2.overall_avg_mshr_miss_latency::cpu6.data 105937.500000                       # average overall mshr miss latency
system.l2.overall_avg_mshr_miss_latency::cpu7.inst 85812.500000                       # average overall mshr miss latency
system.l2.overall_avg_mshr_miss_latency::cpu7.data 153687.500000                       # average overall mshr miss latency
system.l2.overall_avg_mshr_miss_latency::l2.prefetcher 53672.316092                       # average overall mshr miss latency
system.l2.overall_avg_mshr_miss_latency::total 63778.412873                       # average overall mshr miss latency
system.l2.no_allocate_misses                        0                       # Number of misses that were no-allocate
system.membus.trans_dist::ReadReq                1130                       # Transaction distribution
system.membus.trans_dist::ReadResp               1129                       # Transaction distribution
system.membus.trans_dist::UpgradeReq               12                       # Transaction distribution
system.membus.trans_dist::SCUpgradeReq             22                       # Transaction distribution
system.membus.trans_dist::UpgradeResp               5                       # Transaction distribution
system.membus.trans_dist::ReadExReq               104                       # Transaction distribution
system.membus.trans_dist::ReadExResp              104                       # Transaction distribution
system.membus.pkt_count_system.l2.mem_side::system.mem_ctrls.port         2506                       # Packet count per connected master and slave (bytes)
system.membus.pkt_count::total                   2506                       # Packet count per connected master and slave (bytes)
system.membus.pkt_size_system.l2.mem_side::system.mem_ctrls.port        78912                       # Cumulative packet size per connected master and slave (bytes)
system.membus.pkt_size::total                   78912                       # Cumulative packet size per connected master and slave (bytes)
system.membus.snoops                               29                       # Total snoops (count)
system.membus.snoop_fanout::samples              1268                       # Request fanout histogram
system.membus.snoop_fanout::mean                    0                       # Request fanout histogram
system.membus.snoop_fanout::stdev                   0                       # Request fanout histogram
system.membus.snoop_fanout::underflows              0      0.00%      0.00% # Request fanout histogram
system.membus.snoop_fanout::0                    1268    100.00%    100.00% # Request fanout histogram
system.membus.snoop_fanout::1                       0      0.00%    100.00% # Request fanout histogram
system.membus.snoop_fanout::overflows               0      0.00%    100.00% # Request fanout histogram
system.membus.snoop_fanout::min_value               0                       # Request fanout histogram
system.membus.snoop_fanout::max_value               0                       # Request fanout histogram
system.membus.snoop_fanout::total                1268                       # Request fanout histogram
system.membus.reqLayer0.occupancy             1691319                       # Layer occupancy (ticks)
system.membus.reqLayer0.utilization               2.5                       # Layer utilization (%)
system.membus.respLayer1.occupancy            6512252                       # Layer occupancy (ticks)
system.membus.respLayer1.utilization              9.6                       # Layer utilization (%)
system.tol2bus.trans_dist::ReadReq               2411                       # Transaction distribution
system.tol2bus.trans_dist::ReadResp              2409                       # Transaction distribution
system.tol2bus.trans_dist::Writeback               20                       # Transaction distribution
system.tol2bus.trans_dist::HardPFReq              616                       # Transaction distribution
system.tol2bus.trans_dist::UpgradeReq              15                       # Transaction distribution
system.tol2bus.trans_dist::SCUpgradeReq            22                       # Transaction distribution
system.tol2bus.trans_dist::UpgradeResp             37                       # Transaction distribution
system.tol2bus.trans_dist::SCUpgradeFailReq            9                       # Transaction distribution
system.tol2bus.trans_dist::UpgradeFailResp            9                       # Transaction distribution
system.tol2bus.trans_dist::ReadExReq              701                       # Transaction distribution
system.tol2bus.trans_dist::ReadExResp             701                       # Transaction distribution
system.tol2bus.pkt_count_system.cpu0.icache.mem_side::system.l2.cpu_side         1234                       # Packet count per connected master and slave (bytes)
system.tol2bus.pkt_count_system.cpu0.dcache.mem_side::system.l2.cpu_side         1440                       # Packet count per connected master and slave (bytes)
system.tol2bus.pkt_count_system.cpu1.icache.mem_side::system.l2.cpu_side          104                       # Packet count per connected master and slave (bytes)
system.tol2bus.pkt_count_system.cpu1.dcache.mem_side::system.l2.cpu_side          219                       # Packet count per connected master and slave (bytes)
system.tol2bus.pkt_count_system.cpu2.icache.mem_side::system.l2.cpu_side          110                       # Packet count per connected master and slave (bytes)
system.tol2bus.pkt_count_system.cpu2.dcache.mem_side::system.l2.cpu_side          220                       # Packet count per connected master and slave (bytes)
system.tol2bus.pkt_count_system.cpu3.icache.mem_side::system.l2.cpu_side          106                       # Packet count per connected master and slave (bytes)
system.tol2bus.pkt_count_system.cpu3.dcache.mem_side::system.l2.cpu_side          220                       # Packet count per connected master and slave (bytes)
system.tol2bus.pkt_count_system.cpu4.icache.mem_side::system.l2.cpu_side          106                       # Packet count per connected master and slave (bytes)
system.tol2bus.pkt_count_system.cpu4.dcache.mem_side::system.l2.cpu_side          226                       # Packet count per connected master and slave (bytes)
system.tol2bus.pkt_count_system.cpu5.icache.mem_side::system.l2.cpu_side          106                       # Packet count per connected master and slave (bytes)
system.tol2bus.pkt_count_system.cpu5.dcache.mem_side::system.l2.cpu_side          225                       # Packet count per connected master and slave (bytes)
system.tol2bus.pkt_count_system.cpu6.icache.mem_side::system.l2.cpu_side          110                       # Packet count per connected master and slave (bytes)
system.tol2bus.pkt_count_system.cpu6.dcache.mem_side::system.l2.cpu_side          222                       # Packet count per connected master and slave (bytes)
system.tol2bus.pkt_count_system.cpu7.icache.mem_side::system.l2.cpu_side          108                       # Packet count per connected master and slave (bytes)
system.tol2bus.pkt_count_system.cpu7.dcache.mem_side::system.l2.cpu_side          224                       # Packet count per connected master and slave (bytes)
system.tol2bus.pkt_count::total                  4980                       # Packet count per connected master and slave (bytes)
system.tol2bus.pkt_size_system.cpu0.icache.mem_side::system.l2.cpu_side        39424                       # Cumulative packet size per connected master and slave (bytes)
system.tol2bus.pkt_size_system.cpu0.dcache.mem_side::system.l2.cpu_side        45888                       # Cumulative packet size per connected master and slave (bytes)
system.tol2bus.pkt_size_system.cpu1.icache.mem_side::system.l2.cpu_side         3328                       # Cumulative packet size per connected master and slave (bytes)
system.tol2bus.pkt_size_system.cpu1.dcache.mem_side::system.l2.cpu_side          896                       # Cumulative packet size per connected master and slave (bytes)
system.tol2bus.pkt_size_system.cpu2.icache.mem_side::system.l2.cpu_side         3520                       # Cumulative packet size per connected master and slave (bytes)
system.tol2bus.pkt_size_system.cpu2.dcache.mem_side::system.l2.cpu_side          896                       # Cumulative packet size per connected master and slave (bytes)
system.tol2bus.pkt_size_system.cpu3.icache.mem_side::system.l2.cpu_side         3392                       # Cumulative packet size per connected master and slave (bytes)
system.tol2bus.pkt_size_system.cpu3.dcache.mem_side::system.l2.cpu_side         1024                       # Cumulative packet size per connected master and slave (bytes)
system.tol2bus.pkt_size_system.cpu4.icache.mem_side::system.l2.cpu_side         3392                       # Cumulative packet size per connected master and slave (bytes)
system.tol2bus.pkt_size_system.cpu4.dcache.mem_side::system.l2.cpu_side         1024                       # Cumulative packet size per connected master and slave (bytes)
system.tol2bus.pkt_size_system.cpu5.icache.mem_side::system.l2.cpu_side         3392                       # Cumulative packet size per connected master and slave (bytes)
system.tol2bus.pkt_size_system.cpu5.dcache.mem_side::system.l2.cpu_side          960                       # Cumulative packet size per connected master and slave (bytes)
system.tol2bus.pkt_size_system.cpu6.icache.mem_side::system.l2.cpu_side         3520                       # Cumulative packet size per connected master and slave (bytes)
system.tol2bus.pkt_size_system.cpu6.dcache.mem_side::system.l2.cpu_side          960                       # Cumulative packet size per connected master and slave (bytes)
system.tol2bus.pkt_size_system.cpu7.icache.mem_side::system.l2.cpu_side         3456                       # Cumulative packet size per connected master and slave (bytes)
system.tol2bus.pkt_size_system.cpu7.dcache.mem_side::system.l2.cpu_side         1024                       # Cumulative packet size per connected master and slave (bytes)
system.tol2bus.pkt_size::total                 116096                       # Cumulative packet size per connected master and slave (bytes)
system.tol2bus.snoops                            1970                       # Total snoops (count)
system.tol2bus.snoop_fanout::samples             3798                       # Request fanout histogram
system.tol2bus.snoop_fanout::mean           15.162191                       # Request fanout histogram
system.tol2bus.snoop_fanout::stdev           0.368674                       # Request fanout histogram
system.tol2bus.snoop_fanout::underflows             0      0.00%      0.00% # Request fanout histogram
system.tol2bus.snoop_fanout::0                      0      0.00%      0.00% # Request fanout histogram
system.tol2bus.snoop_fanout::1                      0      0.00%      0.00% # Request fanout histogram
system.tol2bus.snoop_fanout::2                      0      0.00%      0.00% # Request fanout histogram
system.tol2bus.snoop_fanout::3                      0      0.00%      0.00% # Request fanout histogram
system.tol2bus.snoop_fanout::4                      0      0.00%      0.00% # Request fanout histogram
system.tol2bus.snoop_fanout::5                      0      0.00%      0.00% # Request fanout histogram
system.tol2bus.snoop_fanout::6                      0      0.00%      0.00% # Request fanout histogram
system.tol2bus.snoop_fanout::7                      0      0.00%      0.00% # Request fanout histogram
system.tol2bus.snoop_fanout::8                      0      0.00%      0.00% # Request fanout histogram
system.tol2bus.snoop_fanout::9                      0      0.00%      0.00% # Request fanout histogram
system.tol2bus.snoop_fanout::10                     0      0.00%      0.00% # Request fanout histogram
system.tol2bus.snoop_fanout::11                     0      0.00%      0.00% # Request fanout histogram
system.tol2bus.snoop_fanout::12                     0      0.00%      0.00% # Request fanout histogram
system.tol2bus.snoop_fanout::13                     0      0.00%      0.00% # Request fanout histogram
system.tol2bus.snoop_fanout::14                     0      0.00%      0.00% # Request fanout histogram
system.tol2bus.snoop_fanout::15                  3182     83.78%     83.78% # Request fanout histogram
system.tol2bus.snoop_fanout::16                   616     16.22%    100.00% # Request fanout histogram
system.tol2bus.snoop_fanout::overflows              0      0.00%    100.00% # Request fanout histogram
system.tol2bus.snoop_fanout::min_value             15                       # Request fanout histogram
system.tol2bus.snoop_fanout::max_value             16                       # Request fanout histogram
system.tol2bus.snoop_fanout::total               3798                       # Request fanout histogram
system.tol2bus.reqLayer0.occupancy            1612746                       # Layer occupancy (ticks)
system.tol2bus.reqLayer0.utilization              2.4                       # Layer utilization (%)
system.tol2bus.respLayer0.occupancy           1029717                       # Layer occupancy (ticks)
system.tol2bus.respLayer0.utilization             1.5                       # Layer utilization (%)
system.tol2bus.respLayer1.occupancy           1094488                       # Layer occupancy (ticks)
system.tol2bus.respLayer1.utilization             1.6                       # Layer utilization (%)
system.tol2bus.respLayer4.occupancy             87955                       # Layer occupancy (ticks)
system.tol2bus.respLayer4.utilization             0.1                       # Layer utilization (%)
system.tol2bus.respLayer5.occupancy            312724                       # Layer occupancy (ticks)
system.tol2bus.respLayer5.utilization             0.5                       # Layer utilization (%)
system.tol2bus.respLayer8.occupancy             90447                       # Layer occupancy (ticks)
system.tol2bus.respLayer8.utilization             0.1                       # Layer utilization (%)
system.tol2bus.respLayer9.occupancy            312726                       # Layer occupancy (ticks)
system.tol2bus.respLayer9.utilization             0.5                       # Layer utilization (%)
system.tol2bus.respLayer12.occupancy            87431                       # Layer occupancy (ticks)
system.tol2bus.respLayer12.utilization            0.1                       # Layer utilization (%)
system.tol2bus.respLayer13.occupancy           305491                       # Layer occupancy (ticks)
system.tol2bus.respLayer13.utilization            0.4                       # Layer utilization (%)
system.tol2bus.respLayer16.occupancy            83723                       # Layer occupancy (ticks)
system.tol2bus.respLayer16.utilization            0.1                       # Layer utilization (%)
system.tol2bus.respLayer17.occupancy           317469                       # Layer occupancy (ticks)
system.tol2bus.respLayer17.utilization            0.5                       # Layer utilization (%)
system.tol2bus.respLayer20.occupancy            85200                       # Layer occupancy (ticks)
system.tol2bus.respLayer20.utilization            0.1                       # Layer utilization (%)
system.tol2bus.respLayer21.occupancy           315739                       # Layer occupancy (ticks)
system.tol2bus.respLayer21.utilization            0.5                       # Layer utilization (%)
system.tol2bus.respLayer24.occupancy            87953                       # Layer occupancy (ticks)
system.tol2bus.respLayer24.utilization            0.1                       # Layer utilization (%)
system.tol2bus.respLayer25.occupancy           311230                       # Layer occupancy (ticks)
system.tol2bus.respLayer25.utilization            0.5                       # Layer utilization (%)
system.tol2bus.respLayer28.occupancy            83220                       # Layer occupancy (ticks)
system.tol2bus.respLayer28.utilization            0.1                       # Layer utilization (%)
system.tol2bus.respLayer29.occupancy           308250                       # Layer occupancy (ticks)
system.tol2bus.respLayer29.utilization            0.5                       # Layer utilization (%)

---------- End Simulation Statistics   ----------
