
---------- Begin Simulation Statistics ----------
sim_seconds                                  0.000055                       # Number of seconds simulated
sim_ticks                                    55185000                       # Number of ticks simulated
final_tick                                   55185000                       # Number of ticks from beginning of simulation (restored from checkpoints and never reset)
sim_freq                                 1000000000000                       # Frequency of simulated ticks
host_inst_rate                                 122523                       # Simulator instruction rate (inst/s)
host_op_rate                                   129952                       # Simulator op (including micro ops) rate (op/s)
host_tick_rate                               67760402                       # Simulator tick rate (ticks/s)
host_mem_usage                                 653076                       # Number of bytes of host memory used
host_seconds                                     0.81                       # Real time elapsed on the host
sim_insts                                       99780                       # Number of instructions simulated
sim_ops                                        105832                       # Number of ops (including micro ops) simulated
system.voltage_domain.voltage                       1                       # Voltage in Volts
system.clk_domain.clock                          1000                       # Clock period in ticks
system.mem_ctrls.bytes_read::cpu0.inst          32768                       # Number of bytes read from this memory
system.mem_ctrls.bytes_read::cpu0.data          21632                       # Number of bytes read from this memory
system.mem_ctrls.bytes_read::cpu1.inst           1152                       # Number of bytes read from this memory
system.mem_ctrls.bytes_read::cpu1.data            256                       # Number of bytes read from this memory
system.mem_ctrls.bytes_read::total              55808                       # Number of bytes read from this memory
system.mem_ctrls.bytes_inst_read::cpu0.inst        32768                       # Number of instructions bytes read from this memory
system.mem_ctrls.bytes_inst_read::cpu1.inst         1152                       # Number of instructions bytes read from this memory
system.mem_ctrls.bytes_inst_read::total         33920                       # Number of instructions bytes read from this memory
system.mem_ctrls.num_reads::cpu0.inst             512                       # Number of read requests responded to by this memory
system.mem_ctrls.num_reads::cpu0.data             338                       # Number of read requests responded to by this memory
system.mem_ctrls.num_reads::cpu1.inst              18                       # Number of read requests responded to by this memory
system.mem_ctrls.num_reads::cpu1.data               4                       # Number of read requests responded to by this memory
system.mem_ctrls.num_reads::total                 872                       # Number of read requests responded to by this memory
system.mem_ctrls.bw_read::cpu0.inst         593784543                       # Total read bandwidth from this memory (bytes/s)
system.mem_ctrls.bw_read::cpu0.data         391990577                       # Total read bandwidth from this memory (bytes/s)
system.mem_ctrls.bw_read::cpu1.inst          20875238                       # Total read bandwidth from this memory (bytes/s)
system.mem_ctrls.bw_read::cpu1.data           4638942                       # Total read bandwidth from this memory (bytes/s)
system.mem_ctrls.bw_read::total            1011289300                       # Total read bandwidth from this memory (bytes/s)
system.mem_ctrls.bw_inst_read::cpu0.inst    593784543                       # Instruction read bandwidth from this memory (bytes/s)
system.mem_ctrls.bw_inst_read::cpu1.inst     20875238                       # Instruction read bandwidth from this memory (bytes/s)
system.mem_ctrls.bw_inst_read::total        614659781                       # Instruction read bandwidth from this memory (bytes/s)
system.mem_ctrls.bw_total::cpu0.inst        593784543                       # Total bandwidth to/from this memory (bytes/s)
system.mem_ctrls.bw_total::cpu0.data        391990577                       # Total bandwidth to/from this memory (bytes/s)
system.mem_ctrls.bw_total::cpu1.inst         20875238                       # Total bandwidth to/from this memory (bytes/s)
system.mem_ctrls.bw_total::cpu1.data          4638942                       # Total bandwidth to/from this memory (bytes/s)
system.mem_ctrls.bw_total::total           1011289300                       # Total bandwidth to/from this memory (bytes/s)
system.mem_ctrls.readReqs                         872                       # Number of read requests accepted
system.mem_ctrls.writeReqs                          0                       # Number of write requests accepted
system.mem_ctrls.readBursts                       872                       # Number of DRAM read bursts, including those serviced by the write queue
system.mem_ctrls.writeBursts                        0                       # Number of DRAM write bursts, including those merged in the write queue
system.mem_ctrls.bytesReadDRAM                  55808                       # Total number of bytes read from DRAM
system.mem_ctrls.bytesReadWrQ                       0                       # Total number of bytes read from write queue
system.mem_ctrls.bytesWritten                       0                       # Total number of bytes written to DRAM
system.mem_ctrls.bytesReadSys                   55808                       # Total read bytes from the system interface side
system.mem_ctrls.bytesWrittenSys                    0                       # Total written bytes from the system interface side
system.mem_ctrls.servicedByWrQ                      0                       # Number of DRAM read bursts serviced by the write queue
system.mem_ctrls.mergedWrBursts                     0                       # Number of DRAM write bursts merged with an existing one
system.mem_ctrls.neitherReadNorWriteReqs            6                       # Number of requests that are neither read nor write
system.mem_ctrls.perBankRdBursts::0               117                       # Per bank write bursts
system.mem_ctrls.perBankRdBursts::1               119                       # Per bank write bursts
system.mem_ctrls.perBankRdBursts::2               132                       # Per bank write bursts
system.mem_ctrls.perBankRdBursts::3               182                       # Per bank write bursts
system.mem_ctrls.perBankRdBursts::4                28                       # Per bank write bursts
system.mem_ctrls.perBankRdBursts::5                17                       # Per bank write bursts
system.mem_ctrls.perBankRdBursts::6                81                       # Per bank write bursts
system.mem_ctrls.perBankRdBursts::7                31                       # Per bank write bursts
system.mem_ctrls.perBankRdBursts::8                14                       # Per bank write bursts
system.mem_ctrls.perBankRdBursts::9                10                       # Per bank write bursts
system.mem_ctrls.perBankRdBursts::10                0                       # Per bank write bursts
system.mem_ctrls.perBankRdBursts::11               12                       # Per bank write bursts
system.mem_ctrls.perBankRdBursts::12                6                       # Per bank write bursts
system.mem_ctrls.perBankRdBursts::13               33                       # Per bank write bursts
system.mem_ctrls.perBankRdBursts::14               38                       # Per bank write bursts
system.mem_ctrls.perBankRdBursts::15               52                       # Per bank write bursts
system.mem_ctrls.perBankWrBursts::0                 0                       # Per bank write bursts
system.mem_ctrls.perBankWrBursts::1                 0                       # Per bank write bursts
system.mem_ctrls.perBankWrBursts::2                 0                       # Per bank write bursts
system.mem_ctrls.perBankWrBursts::3                 0                       # Per bank write bursts
system.mem_ctrls.perBankWrBursts::4                 0                       # Per bank write bursts
system.mem_ctrls.perBankWrBursts::5                 0                       # Per bank write bursts
system.mem_ctrls.perBankWrBursts::6                 0                       # Per bank write bursts
system.mem_ctrls.perBankWrBursts::7                 0                       # Per bank write bursts
system.mem_ctrls.perBankWrBursts::8                 0                       # Per bank write bursts
system.mem_ctrls.perBankWrBursts::9                 0                       # Per bank write bursts
system.mem_ctrls.perBankWrBursts::10                0                       # Per bank write bursts
system.mem_ctrls.perBankWrBursts::11                0                       # Per bank write bursts
system.mem_ctrls.perBankWrBursts::12                0                       # Per bank write bursts
system.mem_ctrls.perBankWrBursts::13                0                       # Per bank write bursts
system.mem_ctrls.perBankWrBursts::14                0                       # Per bank write bursts
system.mem_ctrls.perBankWrBursts::15                0                       # Per bank write bursts
system.mem_ctrls.numRdRetry                         0                       # Number of times read queue was full causing retry
system.mem_ctrls.numWrRetry                         0                       # Number of times write queue was full causing retry
system.mem_ctrls.totGap                      55141500                       # Total gap between requests
system.mem_ctrls.readPktSize::0                     0                       # Read request sizes (log2)
system.mem_ctrls.readPktSize::1                     0                       # Read request sizes (log2)
system.mem_ctrls.readPktSize::2                     0                       # Read request sizes (log2)
system.mem_ctrls.readPktSize::3                     0                       # Read request sizes (log2)
system.mem_ctrls.readPktSize::4                     0                       # Read request sizes (log2)
system.mem_ctrls.readPktSize::5                     0                       # Read request sizes (log2)
system.mem_ctrls.readPktSize::6                   872                       # Read request sizes (log2)
system.mem_ctrls.writePktSize::0                    0                       # Write request sizes (log2)
system.mem_ctrls.writePktSize::1                    0                       # Write request sizes (log2)
system.mem_ctrls.writePktSize::2                    0                       # Write request sizes (log2)
system.mem_ctrls.writePktSize::3                    0                       # Write request sizes (log2)
system.mem_ctrls.writePktSize::4                    0                       # Write request sizes (log2)
system.mem_ctrls.writePktSize::5                    0                       # Write request sizes (log2)
system.mem_ctrls.writePktSize::6                    0                       # Write request sizes (log2)
system.mem_ctrls.rdQLenPdf::0                     489                       # What read queue length does an incoming req see
system.mem_ctrls.rdQLenPdf::1                     291                       # What read queue length does an incoming req see
system.mem_ctrls.rdQLenPdf::2                      67                       # What read queue length does an incoming req see
system.mem_ctrls.rdQLenPdf::3                      17                       # What read queue length does an incoming req see
system.mem_ctrls.rdQLenPdf::4                       7                       # What read queue length does an incoming req see
system.mem_ctrls.rdQLenPdf::5                       1                       # What read queue length does an incoming req see
system.mem_ctrls.rdQLenPdf::6                       0                       # What read queue length does an incoming req see
system.mem_ctrls.rdQLenPdf::7                       0                       # What read queue length does an incoming req see
system.mem_ctrls.rdQLenPdf::8                       0                       # What read queue length does an incoming req see
system.mem_ctrls.rdQLenPdf::9                       0                       # What read queue length does an incoming req see
system.mem_ctrls.rdQLenPdf::10                      0                       # What read queue length does an incoming req see
system.mem_ctrls.rdQLenPdf::11                      0                       # What read queue length does an incoming req see
system.mem_ctrls.rdQLenPdf::12                      0                       # What read queue length does an incoming req see
system.mem_ctrls.rdQLenPdf::13                      0                       # What read queue length does an incoming req see
system.mem_ctrls.rdQLenPdf::14                      0                       # What read queue length does an incoming req see
system.mem_ctrls.rdQLenPdf::15                      0                       # What read queue length does an incoming req see
system.mem_ctrls.rdQLenPdf::16                      0                       # What read queue length does an incoming req see
system.mem_ctrls.rdQLenPdf::17                      0                       # What read queue length does an incoming req see
system.mem_ctrls.rdQLenPdf::18                      0                       # What read queue length does an incoming req see
system.mem_ctrls.rdQLenPdf::19                      0                       # What read queue length does an incoming req see
system.mem_ctrls.rdQLenPdf::20                      0                       # What read queue length does an incoming req see
system.mem_ctrls.rdQLenPdf::21                      0                       # What read queue length does an incoming req see
system.mem_ctrls.rdQLenPdf::22                      0                       # What read queue length does an incoming req see
system.mem_ctrls.rdQLenPdf::23                      0                       # What read queue length does an incoming req see
system.mem_ctrls.rdQLenPdf::24                      0                       # What read queue length does an incoming req see
system.mem_ctrls.rdQLenPdf::25                      0                       # What read queue length does an incoming req see
system.mem_ctrls.rdQLenPdf::26                      0                       # What read queue length does an incoming req see
system.mem_ctrls.rdQLenPdf::27                      0                       # What read queue length does an incoming req see
system.mem_ctrls.rdQLenPdf::28                      0                       # What read queue length does an incoming req see
system.mem_ctrls.rdQLenPdf::29                      0                       # What read queue length does an incoming req see
system.mem_ctrls.rdQLenPdf::30                      0                       # What read queue length does an incoming req see
system.mem_ctrls.rdQLenPdf::31                      0                       # What read queue length does an incoming req see
system.mem_ctrls.wrQLenPdf::0                       0                       # What write queue length does an incoming req see
system.mem_ctrls.wrQLenPdf::1                       0                       # What write queue length does an incoming req see
system.mem_ctrls.wrQLenPdf::2                       0                       # What write queue length does an incoming req see
system.mem_ctrls.wrQLenPdf::3                       0                       # What write queue length does an incoming req see
system.mem_ctrls.wrQLenPdf::4                       0                       # What write queue length does an incoming req see
system.mem_ctrls.wrQLenPdf::5                       0                       # What write queue length does an incoming req see
system.mem_ctrls.wrQLenPdf::6                       0                       # What write queue length does an incoming req see
system.mem_ctrls.wrQLenPdf::7                       0                       # What write queue length does an incoming req see
system.mem_ctrls.wrQLenPdf::8                       0                       # What write queue length does an incoming req see
system.mem_ctrls.wrQLenPdf::9                       0                       # What write queue length does an incoming req see
system.mem_ctrls.wrQLenPdf::10                      0                       # What write queue length does an incoming req see
system.mem_ctrls.wrQLenPdf::11                      0                       # What write queue length does an incoming req see
system.mem_ctrls.wrQLenPdf::12                      0                       # What write queue length does an incoming req see
system.mem_ctrls.wrQLenPdf::13                      0                       # What write queue length does an incoming req see
system.mem_ctrls.wrQLenPdf::14                      0                       # What write queue length does an incoming req see
system.mem_ctrls.wrQLenPdf::15                      0                       # What write queue length does an incoming req see
system.mem_ctrls.wrQLenPdf::16                      0                       # What write queue length does an incoming req see
system.mem_ctrls.wrQLenPdf::17                      0                       # What write queue length does an incoming req see
system.mem_ctrls.wrQLenPdf::18                      0                       # What write queue length does an incoming req see
system.mem_ctrls.wrQLenPdf::19                      0                       # What write queue length does an incoming req see
system.mem_ctrls.wrQLenPdf::20                      0                       # What write queue length does an incoming req see
system.mem_ctrls.wrQLenPdf::21                      0                       # What write queue length does an incoming req see
system.mem_ctrls.wrQLenPdf::22                      0                       # What write queue length does an incoming req see
system.mem_ctrls.wrQLenPdf::23                      0                       # What write queue length does an incoming req see
system.mem_ctrls.wrQLenPdf::24                      0                       # What write queue length does an incoming req see
system.mem_ctrls.wrQLenPdf::25                      0                       # What write queue length does an incoming req see
system.mem_ctrls.wrQLenPdf::26                      0                       # What write queue length does an incoming req see
system.mem_ctrls.wrQLenPdf::27                      0                       # What write queue length does an incoming req see
system.mem_ctrls.wrQLenPdf::28                      0                       # What write queue length does an incoming req see
system.mem_ctrls.wrQLenPdf::29                      0                       # What write queue length does an incoming req see
system.mem_ctrls.wrQLenPdf::30                      0                       # What write queue length does an incoming req see
system.mem_ctrls.wrQLenPdf::31                      0                       # What write queue length does an incoming req see
system.mem_ctrls.wrQLenPdf::32                      0                       # What write queue length does an incoming req see
system.mem_ctrls.wrQLenPdf::33                      0                       # What write queue length does an incoming req see
system.mem_ctrls.wrQLenPdf::34                      0                       # What write queue length does an incoming req see
system.mem_ctrls.wrQLenPdf::35                      0                       # What write queue length does an incoming req see
system.mem_ctrls.wrQLenPdf::36                      0                       # What write queue length does an incoming req see
system.mem_ctrls.wrQLenPdf::37                      0                       # What write queue length does an incoming req see
system.mem_ctrls.wrQLenPdf::38                      0                       # What write queue length does an incoming req see
system.mem_ctrls.wrQLenPdf::39                      0                       # What write queue length does an incoming req see
system.mem_ctrls.wrQLenPdf::40                      0                       # What write queue length does an incoming req see
system.mem_ctrls.wrQLenPdf::41                      0                       # What write queue length does an incoming req see
system.mem_ctrls.wrQLenPdf::42                      0                       # What write queue length does an incoming req see
system.mem_ctrls.wrQLenPdf::43                      0                       # What write queue length does an incoming req see
system.mem_ctrls.wrQLenPdf::44                      0                       # What write queue length does an incoming req see
system.mem_ctrls.wrQLenPdf::45                      0                       # What write queue length does an incoming req see
system.mem_ctrls.wrQLenPdf::46                      0                       # What write queue length does an incoming req see
system.mem_ctrls.wrQLenPdf::47                      0                       # What write queue length does an incoming req see
system.mem_ctrls.wrQLenPdf::48                      0                       # What write queue length does an incoming req see
system.mem_ctrls.wrQLenPdf::49                      0                       # What write queue length does an incoming req see
system.mem_ctrls.wrQLenPdf::50                      0                       # What write queue length does an incoming req see
system.mem_ctrls.wrQLenPdf::51                      0                       # What write queue length does an incoming req see
system.mem_ctrls.wrQLenPdf::52                      0                       # What write queue length does an incoming req see
system.mem_ctrls.wrQLenPdf::53                      0                       # What write queue length does an incoming req see
system.mem_ctrls.wrQLenPdf::54                      0                       # What write queue length does an incoming req see
system.mem_ctrls.wrQLenPdf::55                      0                       # What write queue length does an incoming req see
system.mem_ctrls.wrQLenPdf::56                      0                       # What write queue length does an incoming req see
system.mem_ctrls.wrQLenPdf::57                      0                       # What write queue length does an incoming req see
system.mem_ctrls.wrQLenPdf::58                      0                       # What write queue length does an incoming req see
system.mem_ctrls.wrQLenPdf::59                      0                       # What write queue length does an incoming req see
system.mem_ctrls.wrQLenPdf::60                      0                       # What write queue length does an incoming req see
system.mem_ctrls.wrQLenPdf::61                      0                       # What write queue length does an incoming req see
system.mem_ctrls.wrQLenPdf::62                      0                       # What write queue length does an incoming req see
system.mem_ctrls.wrQLenPdf::63                      0                       # What write queue length does an incoming req see
system.mem_ctrls.bytesPerActivate::samples          171                       # Bytes accessed per row activation
system.mem_ctrls.bytesPerActivate::mean    323.368421                       # Bytes accessed per row activation
system.mem_ctrls.bytesPerActivate::gmean   200.544346                       # Bytes accessed per row activation
system.mem_ctrls.bytesPerActivate::stdev   321.971389                       # Bytes accessed per row activation
system.mem_ctrls.bytesPerActivate::0-127           52     30.41%     30.41% # Bytes accessed per row activation
system.mem_ctrls.bytesPerActivate::128-255           43     25.15%     55.56% # Bytes accessed per row activation
system.mem_ctrls.bytesPerActivate::256-383           26     15.20%     70.76% # Bytes accessed per row activation
system.mem_ctrls.bytesPerActivate::384-511           10      5.85%     76.61% # Bytes accessed per row activation
system.mem_ctrls.bytesPerActivate::512-639            6      3.51%     80.12% # Bytes accessed per row activation
system.mem_ctrls.bytesPerActivate::640-767            8      4.68%     84.80% # Bytes accessed per row activation
system.mem_ctrls.bytesPerActivate::768-895            4      2.34%     87.13% # Bytes accessed per row activation
system.mem_ctrls.bytesPerActivate::896-1023            3      1.75%     88.89% # Bytes accessed per row activation
system.mem_ctrls.bytesPerActivate::1024-1151           19     11.11%    100.00% # Bytes accessed per row activation
system.mem_ctrls.bytesPerActivate::total          171                       # Bytes accessed per row activation
system.mem_ctrls.totQLat                      7297750                       # Total ticks spent queuing
system.mem_ctrls.totMemAccLat                23647750                       # Total ticks spent from burst creation until serviced by the DRAM
system.mem_ctrls.totBusLat                    4360000                       # Total ticks spent in databus transfers
system.mem_ctrls.avgQLat                      8368.98                       # Average queueing delay per DRAM burst
system.mem_ctrls.avgBusLat                    5000.00                       # Average bus latency per DRAM burst
system.mem_ctrls.avgMemAccLat                27118.98                       # Average memory access latency per DRAM burst
system.mem_ctrls.avgRdBW                      1011.29                       # Average DRAM read bandwidth in MiByte/s
system.mem_ctrls.avgWrBW                         0.00                       # Average achieved write bandwidth in MiByte/s
system.mem_ctrls.avgRdBWSys                   1011.29                       # Average system read bandwidth in MiByte/s
system.mem_ctrls.avgWrBWSys                      0.00                       # Average system write bandwidth in MiByte/s
system.mem_ctrls.peakBW                      12800.00                       # Theoretical peak bandwidth in MiByte/s
system.mem_ctrls.busUtil                         7.90                       # Data bus utilization in percentage
system.mem_ctrls.busUtilRead                     7.90                       # Data bus utilization in percentage for reads
system.mem_ctrls.busUtilWrite                    0.00                       # Data bus utilization in percentage for writes
system.mem_ctrls.avgRdQLen                       1.54                       # Average read queue length when enqueuing
system.mem_ctrls.avgWrQLen                       0.00                       # Average write queue length when enqueuing
system.mem_ctrls.readRowHits                      698                       # Number of row buffer hits during reads
system.mem_ctrls.writeRowHits                       0                       # Number of row buffer hits during writes
system.mem_ctrls.readRowHitRate                 80.05                       # Row buffer hit rate for reads
system.mem_ctrls.writeRowHitRate                  nan                       # Row buffer hit rate for writes
system.mem_ctrls.avgGap                      63235.67                       # Average gap between requests
system.mem_ctrls.pageHitRate                    80.05                       # Row buffer hit rate, read and write combined
system.mem_ctrls_0.actEnergy                  1081080                       # Energy for activate commands per rank (pJ)
system.mem_ctrls_0.preEnergy                   589875                       # Energy for precharge commands per rank (pJ)
system.mem_ctrls_0.readEnergy                 5514600                       # Energy for read commands per rank (pJ)
system.mem_ctrls_0.writeEnergy                      0                       # Energy for write commands per rank (pJ)
system.mem_ctrls_0.refreshEnergy              3559920                       # Energy for refresh commands per rank (pJ)
system.mem_ctrls_0.actBackEnergy             34063200                       # Energy for active background per rank (pJ)
system.mem_ctrls_0.preBackEnergy              2978250                       # Energy for precharge background per rank (pJ)
system.mem_ctrls_0.totalEnergy               47786925                       # Total energy per rank (pJ)
system.mem_ctrls_0.averagePower            872.601401                       # Core power per rank (mW)
system.mem_ctrls_0.memoryStateTime::IDLE      4687250                       # Time in different power states
system.mem_ctrls_0.memoryStateTime::REF       1820000                       # Time in different power states
system.mem_ctrls_0.memoryStateTime::PRE_PDN            0                       # Time in different power states
system.mem_ctrls_0.memoryStateTime::ACT      48270250                       # Time in different power states
system.mem_ctrls_0.memoryStateTime::ACT_PDN            0                       # Time in different power states
system.mem_ctrls_1.actEnergy                   211680                       # Energy for activate commands per rank (pJ)
system.mem_ctrls_1.preEnergy                   115500                       # Energy for precharge commands per rank (pJ)
system.mem_ctrls_1.readEnergy                 1224600                       # Energy for read commands per rank (pJ)
system.mem_ctrls_1.writeEnergy                      0                       # Energy for write commands per rank (pJ)
system.mem_ctrls_1.refreshEnergy              3559920                       # Energy for refresh commands per rank (pJ)
system.mem_ctrls_1.actBackEnergy             21587040                       # Energy for active background per rank (pJ)
system.mem_ctrls_1.preBackEnergy             13930500                       # Energy for precharge background per rank (pJ)
system.mem_ctrls_1.totalEnergy               40629240                       # Total energy per rank (pJ)
system.mem_ctrls_1.averagePower            741.714025                       # Core power per rank (mW)
system.mem_ctrls_1.memoryStateTime::IDLE     23022250                       # Time in different power states
system.mem_ctrls_1.memoryStateTime::REF       1820000                       # Time in different power states
system.mem_ctrls_1.memoryStateTime::PRE_PDN            0                       # Time in different power states
system.mem_ctrls_1.memoryStateTime::ACT      29948000                       # Time in different power states
system.mem_ctrls_1.memoryStateTime::ACT_PDN            0                       # Time in different power states
system.cpu0.branchPred.lookups                  12298                       # Number of BP lookups
system.cpu0.branchPred.condPredicted             9980                       # Number of conditional branches predicted
system.cpu0.branchPred.condIncorrect             1099                       # Number of conditional branches incorrect
system.cpu0.branchPred.BTBLookups               10095                       # Number of BTB lookups
system.cpu0.branchPred.BTBHits                   6609                       # Number of BTB hits
system.cpu0.branchPred.BTBCorrect                   0                       # Number of correct BTB predictions (this stat may not work properly.
system.cpu0.branchPred.BTBHitPct            65.468053                       # BTB Hit Percentage
system.cpu0.branchPred.usedRAS                    836                       # Number of times the RAS was used to get a target.
system.cpu0.branchPred.RASInCorrect                14                       # Number of incorrect RAS predictions.
system.cpu_voltage_domain.voltage                   1                       # Voltage in Volts
system.cpu_clk_domain.clock                       500                       # Clock period in ticks
system.cpu0.dstage2_mmu.stage2_tlb.walker.walks            0                       # Table walker walks requested
system.cpu0.dstage2_mmu.stage2_tlb.walker.walkRequestOrigin_Requested::Data            0                       # Table walker requests started/completed, data/inst
system.cpu0.dstage2_mmu.stage2_tlb.walker.walkRequestOrigin_Requested::Inst            0                       # Table walker requests started/completed, data/inst
system.cpu0.dstage2_mmu.stage2_tlb.walker.walkRequestOrigin_Requested::total            0                       # Table walker requests started/completed, data/inst
system.cpu0.dstage2_mmu.stage2_tlb.walker.walkRequestOrigin_Completed::Data            0                       # Table walker requests started/completed, data/inst
system.cpu0.dstage2_mmu.stage2_tlb.walker.walkRequestOrigin_Completed::Inst            0                       # Table walker requests started/completed, data/inst
system.cpu0.dstage2_mmu.stage2_tlb.walker.walkRequestOrigin_Completed::total            0                       # Table walker requests started/completed, data/inst
system.cpu0.dstage2_mmu.stage2_tlb.walker.walkRequestOrigin::total            0                       # Table walker requests started/completed, data/inst
system.cpu0.dstage2_mmu.stage2_tlb.inst_hits            0                       # ITB inst hits
system.cpu0.dstage2_mmu.stage2_tlb.inst_misses            0                       # ITB inst misses
system.cpu0.dstage2_mmu.stage2_tlb.read_hits            0                       # DTB read hits
system.cpu0.dstage2_mmu.stage2_tlb.read_misses            0                       # DTB read misses
system.cpu0.dstage2_mmu.stage2_tlb.write_hits            0                       # DTB write hits
system.cpu0.dstage2_mmu.stage2_tlb.write_misses            0                       # DTB write misses
system.cpu0.dstage2_mmu.stage2_tlb.flush_tlb            0                       # Number of times complete TLB was flushed
system.cpu0.dstage2_mmu.stage2_tlb.flush_tlb_mva            0                       # Number of times TLB was flushed by MVA
system.cpu0.dstage2_mmu.stage2_tlb.flush_tlb_mva_asid            0                       # Number of times TLB was flushed by MVA & ASID
system.cpu0.dstage2_mmu.stage2_tlb.flush_tlb_asid            0                       # Number of times TLB was flushed by ASID
system.cpu0.dstage2_mmu.stage2_tlb.flush_entries            0                       # Number of entries that have been flushed from TLB
system.cpu0.dstage2_mmu.stage2_tlb.align_faults            0                       # Number of TLB faults due to alignment restrictions
system.cpu0.dstage2_mmu.stage2_tlb.prefetch_faults            0                       # Number of TLB faults due to prefetch
system.cpu0.dstage2_mmu.stage2_tlb.domain_faults            0                       # Number of TLB faults due to domain restrictions
system.cpu0.dstage2_mmu.stage2_tlb.perms_faults            0                       # Number of TLB faults due to permissions restrictions
system.cpu0.dstage2_mmu.stage2_tlb.read_accesses            0                       # DTB read accesses
system.cpu0.dstage2_mmu.stage2_tlb.write_accesses            0                       # DTB write accesses
system.cpu0.dstage2_mmu.stage2_tlb.inst_accesses            0                       # ITB inst accesses
system.cpu0.dstage2_mmu.stage2_tlb.hits             0                       # DTB hits
system.cpu0.dstage2_mmu.stage2_tlb.misses            0                       # DTB misses
system.cpu0.dstage2_mmu.stage2_tlb.accesses            0                       # DTB accesses
system.cpu0.dtb.walker.walks                        0                       # Table walker walks requested
system.cpu0.dtb.walker.walkRequestOrigin_Requested::Data            0                       # Table walker requests started/completed, data/inst
system.cpu0.dtb.walker.walkRequestOrigin_Requested::Inst            0                       # Table walker requests started/completed, data/inst
system.cpu0.dtb.walker.walkRequestOrigin_Requested::total            0                       # Table walker requests started/completed, data/inst
system.cpu0.dtb.walker.walkRequestOrigin_Completed::Data            0                       # Table walker requests started/completed, data/inst
system.cpu0.dtb.walker.walkRequestOrigin_Completed::Inst            0                       # Table walker requests started/completed, data/inst
system.cpu0.dtb.walker.walkRequestOrigin_Completed::total            0                       # Table walker requests started/completed, data/inst
system.cpu0.dtb.walker.walkRequestOrigin::total            0                       # Table walker requests started/completed, data/inst
system.cpu0.dtb.inst_hits                           0                       # ITB inst hits
system.cpu0.dtb.inst_misses                         0                       # ITB inst misses
system.cpu0.dtb.read_hits                           0                       # DTB read hits
system.cpu0.dtb.read_misses                         0                       # DTB read misses
system.cpu0.dtb.write_hits                          0                       # DTB write hits
system.cpu0.dtb.write_misses                        0                       # DTB write misses
system.cpu0.dtb.flush_tlb                           0                       # Number of times complete TLB was flushed
system.cpu0.dtb.flush_tlb_mva                       0                       # Number of times TLB was flushed by MVA
system.cpu0.dtb.flush_tlb_mva_asid                  0                       # Number of times TLB was flushed by MVA & ASID
system.cpu0.dtb.flush_tlb_asid                      0                       # Number of times TLB was flushed by ASID
system.cpu0.dtb.flush_entries                       0                       # Number of entries that have been flushed from TLB
system.cpu0.dtb.align_faults                        0                       # Number of TLB faults due to alignment restrictions
system.cpu0.dtb.prefetch_faults                     0                       # Number of TLB faults due to prefetch
system.cpu0.dtb.domain_faults                       0                       # Number of TLB faults due to domain restrictions
system.cpu0.dtb.perms_faults                        0                       # Number of TLB faults due to permissions restrictions
system.cpu0.dtb.read_accesses                       0                       # DTB read accesses
system.cpu0.dtb.write_accesses                      0                       # DTB write accesses
system.cpu0.dtb.inst_accesses                       0                       # ITB inst accesses
system.cpu0.dtb.hits                                0                       # DTB hits
system.cpu0.dtb.misses                              0                       # DTB misses
system.cpu0.dtb.accesses                            0                       # DTB accesses
system.cpu0.istage2_mmu.stage2_tlb.walker.walks            0                       # Table walker walks requested
system.cpu0.istage2_mmu.stage2_tlb.walker.walkRequestOrigin_Requested::Data            0                       # Table walker requests started/completed, data/inst
system.cpu0.istage2_mmu.stage2_tlb.walker.walkRequestOrigin_Requested::Inst            0                       # Table walker requests started/completed, data/inst
system.cpu0.istage2_mmu.stage2_tlb.walker.walkRequestOrigin_Requested::total            0                       # Table walker requests started/completed, data/inst
system.cpu0.istage2_mmu.stage2_tlb.walker.walkRequestOrigin_Completed::Data            0                       # Table walker requests started/completed, data/inst
system.cpu0.istage2_mmu.stage2_tlb.walker.walkRequestOrigin_Completed::Inst            0                       # Table walker requests started/completed, data/inst
system.cpu0.istage2_mmu.stage2_tlb.walker.walkRequestOrigin_Completed::total            0                       # Table walker requests started/completed, data/inst
system.cpu0.istage2_mmu.stage2_tlb.walker.walkRequestOrigin::total            0                       # Table walker requests started/completed, data/inst
system.cpu0.istage2_mmu.stage2_tlb.inst_hits            0                       # ITB inst hits
system.cpu0.istage2_mmu.stage2_tlb.inst_misses            0                       # ITB inst misses
system.cpu0.istage2_mmu.stage2_tlb.read_hits            0                       # DTB read hits
system.cpu0.istage2_mmu.stage2_tlb.read_misses            0                       # DTB read misses
system.cpu0.istage2_mmu.stage2_tlb.write_hits            0                       # DTB write hits
system.cpu0.istage2_mmu.stage2_tlb.write_misses            0                       # DTB write misses
system.cpu0.istage2_mmu.stage2_tlb.flush_tlb            0                       # Number of times complete TLB was flushed
system.cpu0.istage2_mmu.stage2_tlb.flush_tlb_mva            0                       # Number of times TLB was flushed by MVA
system.cpu0.istage2_mmu.stage2_tlb.flush_tlb_mva_asid            0                       # Number of times TLB was flushed by MVA & ASID
system.cpu0.istage2_mmu.stage2_tlb.flush_tlb_asid            0                       # Number of times TLB was flushed by ASID
system.cpu0.istage2_mmu.stage2_tlb.flush_entries            0                       # Number of entries that have been flushed from TLB
system.cpu0.istage2_mmu.stage2_tlb.align_faults            0                       # Number of TLB faults due to alignment restrictions
system.cpu0.istage2_mmu.stage2_tlb.prefetch_faults            0                       # Number of TLB faults due to prefetch
system.cpu0.istage2_mmu.stage2_tlb.domain_faults            0                       # Number of TLB faults due to domain restrictions
system.cpu0.istage2_mmu.stage2_tlb.perms_faults            0                       # Number of TLB faults due to permissions restrictions
system.cpu0.istage2_mmu.stage2_tlb.read_accesses            0                       # DTB read accesses
system.cpu0.istage2_mmu.stage2_tlb.write_accesses            0                       # DTB write accesses
system.cpu0.istage2_mmu.stage2_tlb.inst_accesses            0                       # ITB inst accesses
system.cpu0.istage2_mmu.stage2_tlb.hits             0                       # DTB hits
system.cpu0.istage2_mmu.stage2_tlb.misses            0                       # DTB misses
system.cpu0.istage2_mmu.stage2_tlb.accesses            0                       # DTB accesses
system.cpu0.itb.walker.walks                        0                       # Table walker walks requested
system.cpu0.itb.walker.walkRequestOrigin_Requested::Data            0                       # Table walker requests started/completed, data/inst
system.cpu0.itb.walker.walkRequestOrigin_Requested::Inst            0                       # Table walker requests started/completed, data/inst
system.cpu0.itb.walker.walkRequestOrigin_Requested::total            0                       # Table walker requests started/completed, data/inst
system.cpu0.itb.walker.walkRequestOrigin_Completed::Data            0                       # Table walker requests started/completed, data/inst
system.cpu0.itb.walker.walkRequestOrigin_Completed::Inst            0                       # Table walker requests started/completed, data/inst
system.cpu0.itb.walker.walkRequestOrigin_Completed::total            0                       # Table walker requests started/completed, data/inst
system.cpu0.itb.walker.walkRequestOrigin::total            0                       # Table walker requests started/completed, data/inst
system.cpu0.itb.inst_hits                           0                       # ITB inst hits
system.cpu0.itb.inst_misses                         0                       # ITB inst misses
system.cpu0.itb.read_hits                           0                       # DTB read hits
system.cpu0.itb.read_misses                         0                       # DTB read misses
system.cpu0.itb.write_hits                          0                       # DTB write hits
system.cpu0.itb.write_misses                        0                       # DTB write misses
system.cpu0.itb.flush_tlb                           0                       # Number of times complete TLB was flushed
system.cpu0.itb.flush_tlb_mva                       0                       # Number of times TLB was flushed by MVA
system.cpu0.itb.flush_tlb_mva_asid                  0                       # Number of times TLB was flushed by MVA & ASID
system.cpu0.itb.flush_tlb_asid                      0                       # Number of times TLB was flushed by ASID
system.cpu0.itb.flush_entries                       0                       # Number of entries that have been flushed from TLB
system.cpu0.itb.align_faults                        0                       # Number of TLB faults due to alignment restrictions
system.cpu0.itb.prefetch_faults                     0                       # Number of TLB faults due to prefetch
system.cpu0.itb.domain_faults                       0                       # Number of TLB faults due to domain restrictions
system.cpu0.itb.perms_faults                        0                       # Number of TLB faults due to permissions restrictions
system.cpu0.itb.read_accesses                       0                       # DTB read accesses
system.cpu0.itb.write_accesses                      0                       # DTB write accesses
system.cpu0.itb.inst_accesses                       0                       # ITB inst accesses
system.cpu0.itb.hits                                0                       # DTB hits
system.cpu0.itb.misses                              0                       # DTB misses
system.cpu0.itb.accesses                            0                       # DTB accesses
system.cpu0.workload.num_syscalls                  32                       # Number of system calls
system.cpu0.numCycles                          110371                       # number of cpu cycles simulated
system.cpu0.numWorkItemsStarted                     0                       # number of work items this cpu started
system.cpu0.numWorkItemsCompleted                   0                       # number of work items this cpu completed
system.cpu0.fetch.icacheStallCycles             25607                       # Number of cycles fetch is stalled on an Icache miss
system.cpu0.fetch.Insts                         95807                       # Number of instructions fetch has processed
system.cpu0.fetch.Branches                      12298                       # Number of branches that fetch encountered
system.cpu0.fetch.predictedBranches              7445                       # Number of branches that fetch has predicted taken
system.cpu0.fetch.Cycles                        41151                       # Number of cycles fetch has run and was not squashing or blocked
system.cpu0.fetch.SquashCycles                   2285                       # Number of cycles fetch has spent squashing
system.cpu0.fetch.PendingTrapStallCycles            4                       # Number of stall cycles due to pending traps
system.cpu0.fetch.CacheLines                    12152                       # Number of cache lines fetched
system.cpu0.fetch.IcacheSquashes                  635                       # Number of outstanding Icache misses that were squashed
system.cpu0.fetch.rateDist::samples             67904                       # Number of instructions fetched each cycle (Total)
system.cpu0.fetch.rateDist::mean             1.543620                       # Number of instructions fetched each cycle (Total)
system.cpu0.fetch.rateDist::stdev            2.841256                       # Number of instructions fetched each cycle (Total)
system.cpu0.fetch.rateDist::underflows              0      0.00%      0.00% # Number of instructions fetched each cycle (Total)
system.cpu0.fetch.rateDist::0                   49557     72.98%     72.98% # Number of instructions fetched each cycle (Total)
system.cpu0.fetch.rateDist::1                    1555      2.29%     75.27% # Number of instructions fetched each cycle (Total)
system.cpu0.fetch.rateDist::2                    1614      2.38%     77.65% # Number of instructions fetched each cycle (Total)
system.cpu0.fetch.rateDist::3                    1152      1.70%     79.34% # Number of instructions fetched each cycle (Total)
system.cpu0.fetch.rateDist::4                    1616      2.38%     81.72% # Number of instructions fetched each cycle (Total)
system.cpu0.fetch.rateDist::5                     995      1.47%     83.19% # Number of instructions fetched each cycle (Total)
system.cpu0.fetch.rateDist::6                    1496      2.20%     85.39% # Number of instructions fetched each cycle (Total)
system.cpu0.fetch.rateDist::7                    3188      4.69%     90.09% # Number of instructions fetched each cycle (Total)
system.cpu0.fetch.rateDist::8                    6731      9.91%    100.00% # Number of instructions fetched each cycle (Total)
system.cpu0.fetch.rateDist::overflows               0      0.00%    100.00% # Number of instructions fetched each cycle (Total)
system.cpu0.fetch.rateDist::min_value               0                       # Number of instructions fetched each cycle (Total)
system.cpu0.fetch.rateDist::max_value               8                       # Number of instructions fetched each cycle (Total)
system.cpu0.fetch.rateDist::total               67904                       # Number of instructions fetched each cycle (Total)
system.cpu0.fetch.branchRate                 0.111424                       # Number of branch fetches per cycle
system.cpu0.fetch.rate                       0.868045                       # Number of inst fetches per cycle
system.cpu0.decode.IdleCycles                   17204                       # Number of cycles decode is idle
system.cpu0.decode.BlockedCycles                36076                       # Number of cycles decode is blocked
system.cpu0.decode.RunCycles                     8559                       # Number of cycles decode is running
system.cpu0.decode.UnblockCycles                 5226                       # Number of cycles decode is unblocking
system.cpu0.decode.SquashCycles                   839                       # Number of cycles decode is squashing
system.cpu0.decode.BranchResolved                1048                       # Number of times decode resolved a branch
system.cpu0.decode.BranchMispred                  315                       # Number of times decode detected a branch misprediction
system.cpu0.decode.DecodedInsts                 92313                       # Number of instructions handled by decode
system.cpu0.decode.SquashedInsts                 1157                       # Number of squashed instructions handled by decode
system.cpu0.rename.SquashCycles                   839                       # Number of cycles rename is squashing
system.cpu0.rename.IdleCycles                   19214                       # Number of cycles rename is idle
system.cpu0.rename.BlockCycles                   4749                       # Number of cycles rename is blocking
system.cpu0.rename.serializeStallCycles          7609                       # count of cycles rename stalled for serializing inst
system.cpu0.rename.RunCycles                    11652                       # Number of cycles rename is running
system.cpu0.rename.UnblockCycles                23841                       # Number of cycles rename is unblocking
system.cpu0.rename.RenamedInsts                 89973                       # Number of instructions processed by rename
system.cpu0.rename.ROBFullEvents                    2                       # Number of times rename has blocked due to ROB full
system.cpu0.rename.IQFullEvents                 10610                       # Number of times rename has blocked due to IQ full
system.cpu0.rename.LQFullEvents                   108                       # Number of times rename has blocked due to LQ full
system.cpu0.rename.SQFullEvents                 12503                       # Number of times rename has blocked due to SQ full
system.cpu0.rename.RenamedOperands             106906                       # Number of destination operands rename has renamed
system.cpu0.rename.RenameLookups               433440                       # Number of register rename lookups that rename has made
system.cpu0.rename.int_rename_lookups          130082                       # Number of integer rename lookups
system.cpu0.rename.fp_rename_lookups               22                       # Number of floating rename lookups
system.cpu0.rename.CommittedMaps                73657                       # Number of HB maps that are committed
system.cpu0.rename.UndoneMaps                   33249                       # Number of HB maps that are undone due to squashing
system.cpu0.rename.serializingInsts               124                       # count of serializing insts renamed
system.cpu0.rename.tempSerializingInsts           123                       # count of temporary serializing insts renamed
system.cpu0.rename.skidInsts                    25456                       # count of insts added to the skid buffer
system.cpu0.memDep0.insertedLoads               17101                       # Number of loads inserted to the mem dependence unit.
system.cpu0.memDep0.insertedStores               8676                       # Number of stores inserted to the mem dependence unit.
system.cpu0.memDep0.conflictingLoads              772                       # Number of conflicting loads.
system.cpu0.memDep0.conflictingStores             430                       # Number of conflicting stores.
system.cpu0.iq.iqInstsAdded                     86507                       # Number of instructions added to the IQ (excludes non-spec)
system.cpu0.iq.iqNonSpecInstsAdded                261                       # Number of non-speculative instructions added to the IQ
system.cpu0.iq.iqInstsIssued                    66132                       # Number of instructions issued
system.cpu0.iq.iqSquashedInstsIssued             2254                       # Number of squashed instructions issued
system.cpu0.iq.iqSquashedInstsExamined          25387                       # Number of squashed instructions iterated over during squash; mainly for profiling
system.cpu0.iq.iqSquashedOperandsExamined       102093                       # Number of squashed operands that are examined and possibly removed from graph
system.cpu0.iq.iqSquashedNonSpecRemoved            76                       # Number of squashed non-spec instructions that were removed
system.cpu0.iq.issued_per_cycle::samples        67904                       # Number of insts issued each cycle
system.cpu0.iq.issued_per_cycle::mean        0.973904                       # Number of insts issued each cycle
system.cpu0.iq.issued_per_cycle::stdev       0.974890                       # Number of insts issued each cycle
system.cpu0.iq.issued_per_cycle::underflows            0      0.00%      0.00% # Number of insts issued each cycle
system.cpu0.iq.issued_per_cycle::0              33177     48.86%     48.86% # Number of insts issued each cycle
system.cpu0.iq.issued_per_cycle::1               3322      4.89%     53.75% # Number of insts issued each cycle
system.cpu0.iq.issued_per_cycle::2              31405     46.25%    100.00% # Number of insts issued each cycle
system.cpu0.iq.issued_per_cycle::overflows            0      0.00%    100.00% # Number of insts issued each cycle
system.cpu0.iq.issued_per_cycle::min_value            0                       # Number of insts issued each cycle
system.cpu0.iq.issued_per_cycle::max_value            2                       # Number of insts issued each cycle
system.cpu0.iq.issued_per_cycle::total          67904                       # Number of insts issued each cycle
system.cpu0.iq.fu_full::No_OpClass                  0                       # attempts to use FU when none available
system.cpu0.iq.fu_full::IntAlu                      0                       # attempts to use FU when none available
system.cpu0.iq.fu_full::IntMult                     0                       # attempts to use FU when none available
system.cpu0.iq.fu_full::IntDiv                      0                       # attempts to use FU when none available
system.cpu0.iq.fu_full::FloatAdd                    0                       # attempts to use FU when none available
system.cpu0.iq.fu_full::FloatCmp                    0                       # attempts to use FU when none available
system.cpu0.iq.fu_full::FloatCvt                    0                       # attempts to use FU when none available
system.cpu0.iq.fu_full::FloatMult                   0                       # attempts to use FU when none available
system.cpu0.iq.fu_full::FloatDiv                    0                       # attempts to use FU when none available
system.cpu0.iq.fu_full::FloatSqrt                   0                       # attempts to use FU when none available
system.cpu0.iq.fu_full::SimdAdd                     0                       # attempts to use FU when none available
system.cpu0.iq.fu_full::SimdAddAcc                  0                       # attempts to use FU when none available
system.cpu0.iq.fu_full::SimdAlu                     0                       # attempts to use FU when none available
system.cpu0.iq.fu_full::SimdCmp                     0                       # attempts to use FU when none available
system.cpu0.iq.fu_full::SimdCvt                     0                       # attempts to use FU when none available
system.cpu0.iq.fu_full::SimdMisc                    0                       # attempts to use FU when none available
system.cpu0.iq.fu_full::SimdMult                    0                       # attempts to use FU when none available
system.cpu0.iq.fu_full::SimdMultAcc                 0                       # attempts to use FU when none available
system.cpu0.iq.fu_full::SimdShift                   0                       # attempts to use FU when none available
system.cpu0.iq.fu_full::SimdShiftAcc                0                       # attempts to use FU when none available
system.cpu0.iq.fu_full::SimdSqrt                    0                       # attempts to use FU when none available
system.cpu0.iq.fu_full::SimdFloatAdd                0                       # attempts to use FU when none available
system.cpu0.iq.fu_full::SimdFloatAlu                0                       # attempts to use FU when none available
system.cpu0.iq.fu_full::SimdFloatCmp                0                       # attempts to use FU when none available
system.cpu0.iq.fu_full::SimdFloatCvt                0                       # attempts to use FU when none available
system.cpu0.iq.fu_full::SimdFloatDiv                0                       # attempts to use FU when none available
system.cpu0.iq.fu_full::SimdFloatMisc               0                       # attempts to use FU when none available
system.cpu0.iq.fu_full::SimdFloatMult               0                       # attempts to use FU when none available
system.cpu0.iq.fu_full::SimdFloatMultAcc            0                       # attempts to use FU when none available
system.cpu0.iq.fu_full::SimdFloatSqrt               0                       # attempts to use FU when none available
system.cpu0.iq.fu_full::MemRead                     0                       # attempts to use FU when none available
system.cpu0.iq.fu_full::MemWrite                    0                       # attempts to use FU when none available
system.cpu0.iq.fu_full::IprAccess                   0                       # attempts to use FU when none available
system.cpu0.iq.fu_full::InstPrefetch                0                       # attempts to use FU when none available
system.cpu0.iq.FU_type_0::No_OpClass                0      0.00%      0.00% # Type of FU issued
system.cpu0.iq.FU_type_0::IntAlu                39040     59.03%     59.03% # Type of FU issued
system.cpu0.iq.FU_type_0::IntMult                6716     10.16%     69.19% # Type of FU issued
system.cpu0.iq.FU_type_0::IntDiv                    0      0.00%     69.19% # Type of FU issued
system.cpu0.iq.FU_type_0::FloatAdd                  0      0.00%     69.19% # Type of FU issued
system.cpu0.iq.FU_type_0::FloatCmp                  0      0.00%     69.19% # Type of FU issued
system.cpu0.iq.FU_type_0::FloatCvt                  0      0.00%     69.19% # Type of FU issued
system.cpu0.iq.FU_type_0::FloatMult                 0      0.00%     69.19% # Type of FU issued
system.cpu0.iq.FU_type_0::FloatDiv                  0      0.00%     69.19% # Type of FU issued
system.cpu0.iq.FU_type_0::FloatSqrt                 0      0.00%     69.19% # Type of FU issued
system.cpu0.iq.FU_type_0::SimdAdd                   0      0.00%     69.19% # Type of FU issued
system.cpu0.iq.FU_type_0::SimdAddAcc                0      0.00%     69.19% # Type of FU issued
system.cpu0.iq.FU_type_0::SimdAlu                   0      0.00%     69.19% # Type of FU issued
system.cpu0.iq.FU_type_0::SimdCmp                   0      0.00%     69.19% # Type of FU issued
system.cpu0.iq.FU_type_0::SimdCvt                   0      0.00%     69.19% # Type of FU issued
system.cpu0.iq.FU_type_0::SimdMisc                  0      0.00%     69.19% # Type of FU issued
system.cpu0.iq.FU_type_0::SimdMult                  0      0.00%     69.19% # Type of FU issued
system.cpu0.iq.FU_type_0::SimdMultAcc               0      0.00%     69.19% # Type of FU issued
system.cpu0.iq.FU_type_0::SimdShift                 0      0.00%     69.19% # Type of FU issued
system.cpu0.iq.FU_type_0::SimdShiftAcc              0      0.00%     69.19% # Type of FU issued
system.cpu0.iq.FU_type_0::SimdSqrt                  0      0.00%     69.19% # Type of FU issued
system.cpu0.iq.FU_type_0::SimdFloatAdd              0      0.00%     69.19% # Type of FU issued
system.cpu0.iq.FU_type_0::SimdFloatAlu              0      0.00%     69.19% # Type of FU issued
system.cpu0.iq.FU_type_0::SimdFloatCmp              0      0.00%     69.19% # Type of FU issued
system.cpu0.iq.FU_type_0::SimdFloatCvt              0      0.00%     69.19% # Type of FU issued
system.cpu0.iq.FU_type_0::SimdFloatDiv              0      0.00%     69.19% # Type of FU issued
system.cpu0.iq.FU_type_0::SimdFloatMisc             3      0.00%     69.19% # Type of FU issued
system.cpu0.iq.FU_type_0::SimdFloatMult             0      0.00%     69.19% # Type of FU issued
system.cpu0.iq.FU_type_0::SimdFloatMultAcc            0      0.00%     69.19% # Type of FU issued
system.cpu0.iq.FU_type_0::SimdFloatSqrt             0      0.00%     69.19% # Type of FU issued
system.cpu0.iq.FU_type_0::MemRead               13372     20.22%     89.41% # Type of FU issued
system.cpu0.iq.FU_type_0::MemWrite               7001     10.59%    100.00% # Type of FU issued
system.cpu0.iq.FU_type_0::IprAccess                 0      0.00%    100.00% # Type of FU issued
system.cpu0.iq.FU_type_0::InstPrefetch              0      0.00%    100.00% # Type of FU issued
system.cpu0.iq.FU_type_0::total                 66132                       # Type of FU issued
system.cpu0.iq.rate                          0.599179                       # Inst issue rate
system.cpu0.iq.fu_busy_cnt                          0                       # FU busy when requested
system.cpu0.iq.fu_busy_rate                         0                       # FU busy rate (busy events/executed inst)
system.cpu0.iq.int_inst_queue_reads            202366                       # Number of integer instruction queue reads
system.cpu0.iq.int_inst_queue_writes           112162                       # Number of integer instruction queue writes
system.cpu0.iq.int_inst_queue_wakeup_accesses        64818                       # Number of integer instruction queue wakeup accesses
system.cpu0.iq.fp_inst_queue_reads                 56                       # Number of floating instruction queue reads
system.cpu0.iq.fp_inst_queue_writes                28                       # Number of floating instruction queue writes
system.cpu0.iq.fp_inst_queue_wakeup_accesses           28                       # Number of floating instruction queue wakeup accesses
system.cpu0.iq.int_alu_accesses                 66104                       # Number of integer alu accesses
system.cpu0.iq.fp_alu_accesses                     28                       # Number of floating point alu accesses
system.cpu0.iew.lsq.thread0.forwLoads              64                       # Number of loads that had data forwarded from stores
system.cpu0.iew.lsq.thread0.invAddrLoads            0                       # Number of loads ignored due to an invalid address
system.cpu0.iew.lsq.thread0.squashedLoads         5300                       # Number of loads squashed
system.cpu0.iew.lsq.thread0.ignoredResponses            3                       # Number of memory responses ignored because the instruction is squashed
system.cpu0.iew.lsq.thread0.memOrderViolation           35                       # Number of memory ordering violations
system.cpu0.iew.lsq.thread0.squashedStores         2028                       # Number of stores squashed
system.cpu0.iew.lsq.thread0.invAddrSwpfs            0                       # Number of software prefetches ignored due to an invalid address
system.cpu0.iew.lsq.thread0.blockedLoads            0                       # Number of blocked loads due to partial load-store forwarding
system.cpu0.iew.lsq.thread0.rescheduledLoads           31                       # Number of loads that were rescheduled
system.cpu0.iew.lsq.thread0.cacheBlocked           59                       # Number of times an access to memory failed due to the cache being blocked
system.cpu0.iew.iewIdleCycles                       0                       # Number of cycles IEW is idle
system.cpu0.iew.iewSquashCycles                   839                       # Number of cycles IEW is squashing
system.cpu0.iew.iewBlockCycles                   3478                       # Number of cycles IEW is blocking
system.cpu0.iew.iewUnblockCycles                  448                       # Number of cycles IEW is unblocking
system.cpu0.iew.iewDispatchedInsts              86775                       # Number of instructions dispatched to IQ
system.cpu0.iew.iewDispSquashedInsts              101                       # Number of squashed instructions skipped by dispatch
system.cpu0.iew.iewDispLoadInsts                17101                       # Number of dispatched load instructions
system.cpu0.iew.iewDispStoreInsts                8676                       # Number of dispatched store instructions
system.cpu0.iew.iewDispNonSpecInsts               117                       # Number of dispatched non-speculative instructions
system.cpu0.iew.iewIQFullEvents                    16                       # Number of times the IQ has become full, causing a stall
system.cpu0.iew.iewLSQFullEvents                  429                       # Number of times the LSQ has become full, causing a stall
system.cpu0.iew.memOrderViolationEvents            35                       # Number of memory order violations
system.cpu0.iew.predictedTakenIncorrect           283                       # Number of branches that were predicted taken incorrectly
system.cpu0.iew.predictedNotTakenIncorrect          546                       # Number of branches that were predicted not taken incorrectly
system.cpu0.iew.branchMispredicts                 829                       # Number of branch mispredicts detected at execute
system.cpu0.iew.iewExecutedInsts                65544                       # Number of executed instructions
system.cpu0.iew.iewExecLoadInsts                13062                       # Number of load instructions executed
system.cpu0.iew.iewExecSquashedInsts              588                       # Number of squashed instructions skipped in execute
system.cpu0.iew.exec_swp                            0                       # number of swp insts executed
system.cpu0.iew.exec_nop                            7                       # number of nop insts executed
system.cpu0.iew.exec_refs                       19938                       # number of memory reference insts executed
system.cpu0.iew.exec_branches                    6904                       # Number of branches executed
system.cpu0.iew.exec_stores                      6876                       # Number of stores executed
system.cpu0.iew.exec_rate                    0.593852                       # Inst execution rate
system.cpu0.iew.wb_sent                         65007                       # cumulative count of insts sent to commit
system.cpu0.iew.wb_count                        64846                       # cumulative count of insts written-back
system.cpu0.iew.wb_producers                    47798                       # num instructions producing a value
system.cpu0.iew.wb_consumers                    95614                       # num instructions consuming a value
system.cpu0.iew.wb_penalized                        0                       # number of instrctions required to write to 'other' IQ
system.cpu0.iew.wb_rate                      0.587528                       # insts written-back per cycle
system.cpu0.iew.wb_fanout                    0.499906                       # average fanout of values written-back
system.cpu0.iew.wb_penalized_rate                   0                       # fraction of instructions written-back that wrote to 'other' IQ
system.cpu0.commit.commitSquashedInsts          25397                       # The number of squashed insts skipped by commit
system.cpu0.commit.commitNonSpecStalls            185                       # The number of times commit has been forced to stall to communicate backwards
system.cpu0.commit.branchMispredicts              796                       # The number of times a branch was mispredicted
system.cpu0.commit.committed_per_cycle::samples        64197                       # Number of insts commited each cycle
system.cpu0.commit.committed_per_cycle::mean     0.956135                       # Number of insts commited each cycle
system.cpu0.commit.committed_per_cycle::stdev     1.761809                       # Number of insts commited each cycle
system.cpu0.commit.committed_per_cycle::underflows            0      0.00%      0.00% # Number of insts commited each cycle
system.cpu0.commit.committed_per_cycle::0        39307     61.23%     61.23% # Number of insts commited each cycle
system.cpu0.commit.committed_per_cycle::1         9512     14.82%     76.05% # Number of insts commited each cycle
system.cpu0.commit.committed_per_cycle::2         9492     14.79%     90.83% # Number of insts commited each cycle
system.cpu0.commit.committed_per_cycle::3         1815      2.83%     93.66% # Number of insts commited each cycle
system.cpu0.commit.committed_per_cycle::4          456      0.71%     94.37% # Number of insts commited each cycle
system.cpu0.commit.committed_per_cycle::5          615      0.96%     95.33% # Number of insts commited each cycle
system.cpu0.commit.committed_per_cycle::6          675      1.05%     96.38% # Number of insts commited each cycle
system.cpu0.commit.committed_per_cycle::7          109      0.17%     96.55% # Number of insts commited each cycle
system.cpu0.commit.committed_per_cycle::8         2216      3.45%    100.00% # Number of insts commited each cycle
system.cpu0.commit.committed_per_cycle::overflows            0      0.00%    100.00% # Number of insts commited each cycle
system.cpu0.commit.committed_per_cycle::min_value            0                       # Number of insts commited each cycle
system.cpu0.commit.committed_per_cycle::max_value            8                       # Number of insts commited each cycle
system.cpu0.commit.committed_per_cycle::total        64197                       # Number of insts commited each cycle
system.cpu0.commit.committedInsts               55935                       # Number of instructions committed
system.cpu0.commit.committedOps                 61381                       # Number of ops (including micro ops) committed
system.cpu0.commit.swp_count                        0                       # Number of s/w prefetches committed
system.cpu0.commit.refs                         18449                       # Number of memory references committed
system.cpu0.commit.loads                        11801                       # Number of loads committed
system.cpu0.commit.membars                        113                       # Number of memory barriers committed
system.cpu0.commit.branches                      6255                       # Number of branches committed
system.cpu0.commit.fp_insts                        28                       # Number of committed floating point instructions.
system.cpu0.commit.int_insts                    55617                       # Number of committed integer instructions.
system.cpu0.commit.function_calls                 284                       # Number of function calls committed.
system.cpu0.commit.op_class_0::No_OpClass            0      0.00%      0.00% # Class of committed instruction
system.cpu0.commit.op_class_0::IntAlu           36249     59.06%     59.06% # Class of committed instruction
system.cpu0.commit.op_class_0::IntMult           6680     10.88%     69.94% # Class of committed instruction
system.cpu0.commit.op_class_0::IntDiv               0      0.00%     69.94% # Class of committed instruction
system.cpu0.commit.op_class_0::FloatAdd             0      0.00%     69.94% # Class of committed instruction
system.cpu0.commit.op_class_0::FloatCmp             0      0.00%     69.94% # Class of committed instruction
system.cpu0.commit.op_class_0::FloatCvt             0      0.00%     69.94% # Class of committed instruction
system.cpu0.commit.op_class_0::FloatMult            0      0.00%     69.94% # Class of committed instruction
system.cpu0.commit.op_class_0::FloatDiv             0      0.00%     69.94% # Class of committed instruction
system.cpu0.commit.op_class_0::FloatSqrt            0      0.00%     69.94% # Class of committed instruction
system.cpu0.commit.op_class_0::SimdAdd              0      0.00%     69.94% # Class of committed instruction
system.cpu0.commit.op_class_0::SimdAddAcc            0      0.00%     69.94% # Class of committed instruction
system.cpu0.commit.op_class_0::SimdAlu              0      0.00%     69.94% # Class of committed instruction
system.cpu0.commit.op_class_0::SimdCmp              0      0.00%     69.94% # Class of committed instruction
system.cpu0.commit.op_class_0::SimdCvt              0      0.00%     69.94% # Class of committed instruction
system.cpu0.commit.op_class_0::SimdMisc             0      0.00%     69.94% # Class of committed instruction
system.cpu0.commit.op_class_0::SimdMult             0      0.00%     69.94% # Class of committed instruction
system.cpu0.commit.op_class_0::SimdMultAcc            0      0.00%     69.94% # Class of committed instruction
system.cpu0.commit.op_class_0::SimdShift            0      0.00%     69.94% # Class of committed instruction
system.cpu0.commit.op_class_0::SimdShiftAcc            0      0.00%     69.94% # Class of committed instruction
system.cpu0.commit.op_class_0::SimdSqrt             0      0.00%     69.94% # Class of committed instruction
system.cpu0.commit.op_class_0::SimdFloatAdd            0      0.00%     69.94% # Class of committed instruction
system.cpu0.commit.op_class_0::SimdFloatAlu            0      0.00%     69.94% # Class of committed instruction
system.cpu0.commit.op_class_0::SimdFloatCmp            0      0.00%     69.94% # Class of committed instruction
system.cpu0.commit.op_class_0::SimdFloatCvt            0      0.00%     69.94% # Class of committed instruction
system.cpu0.commit.op_class_0::SimdFloatDiv            0      0.00%     69.94% # Class of committed instruction
system.cpu0.commit.op_class_0::SimdFloatMisc            3      0.00%     69.94% # Class of committed instruction
system.cpu0.commit.op_class_0::SimdFloatMult            0      0.00%     69.94% # Class of committed instruction
system.cpu0.commit.op_class_0::SimdFloatMultAcc            0      0.00%     69.94% # Class of committed instruction
system.cpu0.commit.op_class_0::SimdFloatSqrt            0      0.00%     69.94% # Class of committed instruction
system.cpu0.commit.op_class_0::MemRead          11801     19.23%     89.17% # Class of committed instruction
system.cpu0.commit.op_class_0::MemWrite          6648     10.83%    100.00% # Class of committed instruction
system.cpu0.commit.op_class_0::IprAccess            0      0.00%    100.00% # Class of committed instruction
system.cpu0.commit.op_class_0::InstPrefetch            0      0.00%    100.00% # Class of committed instruction
system.cpu0.commit.op_class_0::total            61381                       # Class of committed instruction
system.cpu0.commit.bw_lim_events                 2216                       # number cycles where commit BW limit reached
system.cpu0.rob.rob_reads                      148550                       # The number of ROB reads
system.cpu0.rob.rob_writes                     177274                       # The number of ROB writes
system.cpu0.timesIdled                            399                       # Number of times that the entire CPU went into an idle state and unscheduled itself
system.cpu0.idleCycles                          42467                       # Total number of cycles that the CPU has spent unscheduled due to idling
system.cpu0.committedInsts                      55935                       # Number of Instructions Simulated
system.cpu0.committedOps                        61381                       # Number of Ops (including micro ops) Simulated
system.cpu0.cpi                              1.973201                       # CPI: Cycles Per Instruction
system.cpu0.cpi_total                        1.973201                       # CPI: Total CPI of All Threads
system.cpu0.ipc                              0.506791                       # IPC: Instructions Per Cycle
system.cpu0.ipc_total                        0.506791                       # IPC: Total IPC of All Threads
system.cpu0.int_regfile_reads                   93557                       # number of integer regfile reads
system.cpu0.int_regfile_writes                  48122                       # number of integer regfile writes
system.cpu0.fp_regfile_reads                      182                       # number of floating regfile reads
system.cpu0.fp_regfile_writes                       6                       # number of floating regfile writes
system.cpu0.cc_regfile_reads                   234146                       # number of cc regfile reads
system.cpu0.cc_regfile_writes                   29310                       # number of cc regfile writes
system.cpu0.misc_regfile_reads                  20986                       # number of misc regfile reads
system.cpu0.misc_regfile_writes                   114                       # number of misc regfile writes
system.cpu0.dcache.tags.replacements               63                       # number of replacements
system.cpu0.dcache.tags.tagsinuse          199.442912                       # Cycle average of tags in use
system.cpu0.dcache.tags.total_refs              16121                       # Total number of references to valid blocks.
system.cpu0.dcache.tags.sampled_refs              380                       # Sample count of references to valid blocks.
[...]
system.l2.avg_blocked_cycles::no_mshrs            nan                       # average number of cycles each access was blocked
system.l2.avg_blocked_cycles::no_targets          nan                       # average number of cycles each access was blocked
system.l2.fast_writes                               0                       # number of fast writes performed
system.l2.cache_copies                              0                       # number of cache copies performed
system.l2.ReadReq_mshr_hits::cpu0.inst              3                       # number of ReadReq MSHR hits
system.l2.ReadReq_mshr_hits::cpu0.data             16                       # number of ReadReq MSHR hits
system.l2.ReadReq_mshr_hits::cpu1.inst              5                       # number of ReadReq MSHR hits
system.l2.ReadReq_mshr_hits::cpu1.data              1                       # number of ReadReq MSHR hits
system.l2.ReadReq_mshr_hits::total                 25                       # number of ReadReq MSHR hits
system.l2.demand_mshr_hits::cpu0.inst               3                       # number of demand (read+write) MSHR hits
system.l2.demand_mshr_hits::cpu0.data              16                       # number of demand (read+write) MSHR hits
system.l2.demand_mshr_hits::cpu1.inst               5                       # number of demand (read+write) MSHR hits
system.l2.demand_mshr_hits::cpu1.data               1                       # number of demand (read+write) MSHR hits
system.l2.demand_mshr_hits::total                  25                       # number of demand (read+write) MSHR hits
system.l2.overall_mshr_hits::cpu0.inst              3                       # number of overall MSHR hits
system.l2.overall_mshr_hits::cpu0.data             16                       # number of overall MSHR hits
system.l2.overall_mshr_hits::cpu1.inst              5                       # number of overall MSHR hits
system.l2.overall_mshr_hits::cpu1.data              1                       # number of overall MSHR hits
system.l2.overall_mshr_hits::total                 25                       # number of overall MSHR hits
system.l2.ReadReq_mshr_misses::cpu0.inst          513                       # number of ReadReq MSHR misses
system.l2.ReadReq_mshr_misses::cpu0.data          110                       # number of ReadReq MSHR misses
system.l2.ReadReq_mshr_misses::cpu1.inst           18                       # number of ReadReq MSHR misses
system.l2.ReadReq_mshr_misses::total              641                       # number of ReadReq MSHR misses
system.l2.UpgradeReq_mshr_misses::cpu0.data            5                       # number of UpgradeReq MSHR misses
system.l2.UpgradeReq_mshr_misses::total             5                       # number of UpgradeReq MSHR misses
system.l2.SCUpgradeReq_mshr_misses::cpu0.data            1                       # number of SCUpgradeReq MSHR misses
system.l2.SCUpgradeReq_mshr_misses::total            1                       # number of SCUpgradeReq MSHR misses
system.l2.ReadExReq_mshr_misses::cpu0.data          228                       # number of ReadExReq MSHR misses
system.l2.ReadExReq_mshr_misses::cpu1.data            4                       # number of ReadExReq MSHR misses
system.l2.ReadExReq_mshr_misses::total            232                       # number of ReadExReq MSHR misses
system.l2.demand_mshr_misses::cpu0.inst           513                       # number of demand (read+write) MSHR misses
system.l2.demand_mshr_misses::cpu0.data           338                       # number of demand (read+write) MSHR misses
system.l2.demand_mshr_misses::cpu1.inst            18                       # number of demand (read+write) MSHR misses
system.l2.demand_mshr_misses::cpu1.data             4                       # number of demand (read+write) MSHR misses
system.l2.demand_mshr_misses::total               873                       # number of demand (read+write) MSHR misses
system.l2.overall_mshr_misses::cpu0.inst          513                       # number of overall MSHR misses
system.l2.overall_mshr_misses::cpu0.data          338                       # number of overall MSHR misses
system.l2.overall_mshr_misses::cpu1.inst           18                       # number of overall MSHR misses
system.l2.overall_mshr_misses::cpu1.data            4                       # number of overall MSHR misses
system.l2.overall_mshr_misses::total              873                       # number of overall MSHR misses
system.l2.ReadReq_mshr_miss_latency::cpu0.inst     33375500                       # number of ReadReq MSHR miss cycles
system.l2.ReadReq_mshr_miss_latency::cpu0.data      7438500                       # number of ReadReq MSHR miss cycles
system.l2.ReadReq_mshr_miss_latency::cpu1.inst      1158500                       # number of ReadReq MSHR miss cycles
system.l2.ReadReq_mshr_miss_latency::total     41972500                       # number of ReadReq MSHR miss cycles
system.l2.UpgradeReq_mshr_miss_latency::cpu0.data        88505                       # number of UpgradeReq MSHR miss cycles
system.l2.UpgradeReq_mshr_miss_latency::total        88505                       # number of UpgradeReq MSHR miss cycles
system.l2.SCUpgradeReq_mshr_miss_latency::cpu0.data        18001                       # number of SCUpgradeReq MSHR miss cycles
system.l2.SCUpgradeReq_mshr_miss_latency::total        18001                       # number of SCUpgradeReq MSHR miss cycles
system.l2.ReadExReq_mshr_miss_latency::cpu0.data     14371750                       # number of ReadExReq MSHR miss cycles
system.l2.ReadExReq_mshr_miss_latency::cpu1.data       254500                       # number of ReadExReq MSHR miss cycles
system.l2.ReadExReq_mshr_miss_latency::total     14626250                       # number of ReadExReq MSHR miss cycles
system.l2.demand_mshr_miss_latency::cpu0.inst     33375500                       # number of demand (read+write) MSHR miss cycles
system.l2.demand_mshr_miss_latency::cpu0.data     21810250                       # number of demand (read+write) MSHR miss cycles
system.l2.demand_mshr_miss_latency::cpu1.inst      1158500                       # number of demand (read+write) MSHR miss cycles
system.l2.demand_mshr_miss_latency::cpu1.data       254500                       # number of demand (read+write) MSHR miss cycles
system.l2.demand_mshr_miss_latency::total     56598750                       # number of demand (read+write) MSHR miss cycles
system.l2.overall_mshr_miss_latency::cpu0.inst     33375500                       # number of overall MSHR miss cycles
system.l2.overall_mshr_miss_latency::cpu0.data     21810250                       # number of overall MSHR miss cycles
system.l2.overall_mshr_miss_latency::cpu1.inst      1158500                       # number of overall MSHR miss cycles
system.l2.overall_mshr_miss_latency::cpu1.data       254500                       # number of overall MSHR miss cycles
system.l2.overall_mshr_miss_latency::total     56598750                       # number of overall MSHR miss cycles
system.l2.ReadReq_mshr_miss_rate::cpu0.inst     0.852159                       # mshr miss rate for ReadReq accesses
system.l2.ReadReq_mshr_miss_rate::cpu0.data     0.658683                       # mshr miss rate for ReadReq accesses
system.l2.ReadReq_mshr_miss_rate::cpu1.inst     0.339623                       # mshr miss rate for ReadReq accesses
system.l2.ReadReq_mshr_miss_rate::total      0.767665                       # mshr miss rate for ReadReq accesses
system.l2.UpgradeReq_mshr_miss_rate::cpu0.data     0.625000                       # mshr miss rate for UpgradeReq accesses
system.l2.UpgradeReq_mshr_miss_rate::total     0.625000                       # mshr miss rate for UpgradeReq accesses
system.l2.SCUpgradeReq_mshr_miss_rate::cpu0.data            1                       # mshr miss rate for SCUpgradeReq accesses
system.l2.SCUpgradeReq_mshr_miss_rate::total            1                       # mshr miss rate for SCUpgradeReq accesses
system.l2.ReadExReq_mshr_miss_rate::cpu0.data     0.987013                       # mshr miss rate for ReadExReq accesses
system.l2.ReadExReq_mshr_miss_rate::cpu1.data     0.666667                       # mshr miss rate for ReadExReq accesses
system.l2.ReadExReq_mshr_miss_rate::total     0.978903                       # mshr miss rate for ReadExReq accesses
system.l2.demand_mshr_miss_rate::cpu0.inst     0.852159                       # mshr miss rate for demand accesses
system.l2.demand_mshr_miss_rate::cpu0.data     0.849246                       # mshr miss rate for demand accesses
system.l2.demand_mshr_miss_rate::cpu1.inst     0.339623                       # mshr miss rate for demand accesses
system.l2.demand_mshr_miss_rate::cpu1.data     0.210526                       # mshr miss rate for demand accesses
system.l2.demand_mshr_miss_rate::total       0.814366                       # mshr miss rate for demand accesses
system.l2.overall_mshr_miss_rate::cpu0.inst     0.852159                       # mshr miss rate for overall accesses
system.l2.overall_mshr_miss_rate::cpu0.data     0.849246                       # mshr miss rate for overall accesses
system.l2.overall_mshr_miss_rate::cpu1.inst     0.339623                       # mshr miss rate for overall accesses
system.l2.overall_mshr_miss_rate::cpu1.data     0.210526                       # mshr miss rate for overall accesses
system.l2.overall_mshr_miss_rate::total      0.814366                       # mshr miss rate for overall accesses
system.l2.ReadReq_avg_mshr_miss_latency::cpu0.inst 65059.454191                       # average ReadReq mshr miss latency
system.l2.ReadReq_avg_mshr_miss_latency::cpu0.data 67622.727273                       # average ReadReq mshr miss latency
system.l2.ReadReq_avg_mshr_miss_latency::cpu1.inst 64361.111111                       # average ReadReq mshr miss latency
system.l2.ReadReq_avg_mshr_miss_latency::total 65479.719189                       # average ReadReq mshr miss latency
system.l2.UpgradeReq_avg_mshr_miss_latency::cpu0.data        17701                       # average UpgradeReq mshr miss latency
system.l2.UpgradeReq_avg_mshr_miss_latency::total        17701                       # average UpgradeReq mshr miss latency
system.l2.SCUpgradeReq_avg_mshr_miss_latency::cpu0.data        18001                       # average SCUpgradeReq mshr miss latency
system.l2.SCUpgradeReq_avg_mshr_miss_latency::total        18001                       # average SCUpgradeReq mshr miss latency
system.l2.ReadExReq_avg_mshr_miss_latency::cpu0.data 63033.991228                       # average ReadExReq mshr miss latency
system.l2.ReadExReq_avg_mshr_miss_latency::cpu1.data        63625                       # average ReadExReq mshr miss latency
system.l2.ReadExReq_avg_mshr_miss_latency::total 63044.181034                       # average ReadExReq mshr miss latency
system.l2.demand_avg_mshr_miss_latency::cpu0.inst 65059.454191                       # average overall mshr miss latency
system.l2.demand_avg_mshr_miss_latency::cpu0.data 64527.366864                       # average overall mshr miss latency
system.l2.demand_avg_mshr_miss_latency::cpu1.inst 64361.111111                       # average overall mshr miss latency
system.l2.demand_avg_mshr_miss_latency::cpu1.data        63625                       # average overall mshr miss latency
system.l2.demand_avg_mshr_miss_latency::total 64832.474227                       # average overall mshr miss latency
system.l2.overall_avg_mshr_miss_latency::cpu0.inst 65059.454191                       # average overall mshr miss latency
system.l2.overall_avg_mshr_miss_latency::cpu0.data 64527.366864                       # average overall mshr miss latency
system.l2.overall_avg_mshr_miss_latency::cpu1.inst 64361.111111                       # average overall mshr miss latency
system.l2.overall_avg_mshr_miss_latency::cpu1.data        63625                       # average overall mshr miss latency
system.l2.overall_avg_mshr_miss_latency::total 64832.474227                       # average overall mshr miss latency
system.l2.no_allocate_misses                        0                       # Number of misses that were no-allocate
system.membus.trans_dist::ReadReq                 640                       # Transaction distribution
system.membus.trans_dist::ReadResp                639                       # Transaction distribution
system.membus.trans_dist::UpgradeReq                8                       # Transaction distribution
system.membus.trans_dist::SCUpgradeReq              3                       # Transaction distribution
system.membus.trans_dist::UpgradeResp               6                       # Transaction distribution
system.membus.trans_dist::ReadExReq               232                       # Transaction distribution
system.membus.trans_dist::ReadExResp              232                       # Transaction distribution
system.membus.pkt_count_system.l2.mem_side::system.mem_ctrls.port         1760                       # Packet count per connected master and slave (bytes)
system.membus.pkt_count::total                   1760                       # Packet count per connected master and slave (bytes)
system.membus.pkt_size_system.l2.mem_side::system.mem_ctrls.port        55744                       # Cumulative packet size per connected master and slave (bytes)
system.membus.pkt_size::total                   55744                       # Cumulative packet size per connected master and slave (bytes)
system.membus.snoops                                5                       # Total snoops (count)
system.membus.snoop_fanout::samples               883                       # Request fanout histogram
system.membus.snoop_fanout::mean                    0                       # Request fanout histogram
system.membus.snoop_fanout::stdev                   0                       # Request fanout histogram
system.membus.snoop_fanout::underflows              0      0.00%      0.00% # Request fanout histogram
system.membus.snoop_fanout::0                     883    100.00%    100.00% # Request fanout histogram
system.membus.snoop_fanout::1                       0      0.00%    100.00% # Request fanout histogram
system.membus.snoop_fanout::overflows               0      0.00%    100.00% # Request fanout histogram
system.membus.snoop_fanout::min_value               0                       # Request fanout histogram
system.membus.snoop_fanout::max_value               0                       # Request fanout histogram
system.membus.snoop_fanout::total                 883                       # Request fanout histogram
system.membus.reqLayer0.occupancy             1071500                       # Layer occupancy (ticks)
system.membus.reqLayer0.utilization               1.9                       # Layer utilization (%)
system.membus.respLayer1.occupancy            4624744                       # Layer occupancy (ticks)
system.membus.respLayer1.utilization              8.4                       # Layer utilization (%)
system.tol2bus.trans_dist::ReadReq                906                       # Transaction distribution
system.tol2bus.trans_dist::ReadResp               904                       # Transaction distribution
system.tol2bus.trans_dist::Writeback               26                       # Transaction distribution
system.tol2bus.trans_dist::UpgradeReq              11                       # Transaction distribution
system.tol2bus.trans_dist::SCUpgradeReq             3                       # Transaction distribution
system.tol2bus.trans_dist::UpgradeResp             14                       # Transaction distribution
system.tol2bus.trans_dist::ReadExReq              255                       # Transaction distribution
system.tol2bus.trans_dist::ReadExResp             255                       # Transaction distribution
system.tol2bus.pkt_count_system.cpu0.icache.mem_side::system.l2.cpu_side         1202                       # Packet count per connected master and slave (bytes)
system.tol2bus.pkt_count_system.cpu0.dcache.mem_side::system.l2.cpu_side          844                       # Packet count per connected master and slave (bytes)
system.tol2bus.pkt_count_system.cpu1.icache.mem_side::system.l2.cpu_side          106                       # Packet count per connected master and slave (bytes)
system.tol2bus.pkt_count_system.cpu1.dcache.mem_side::system.l2.cpu_side          128                       # Packet count per connected master and slave (bytes)
system.tol2bus.pkt_count::total                  2280                       # Packet count per connected master and slave (bytes)
system.tol2bus.pkt_size_system.cpu0.icache.mem_side::system.l2.cpu_side        38400                       # Cumulative packet size per connected master and slave (bytes)
system.tol2bus.pkt_size_system.cpu0.dcache.mem_side::system.l2.cpu_side        27136                       # Cumulative packet size per connected master and slave (bytes)
system.tol2bus.pkt_size_system.cpu1.icache.mem_side::system.l2.cpu_side         3392                       # Cumulative packet size per connected master and slave (bytes)
system.tol2bus.pkt_size_system.cpu1.dcache.mem_side::system.l2.cpu_side         1216                       # Cumulative packet size per connected master and slave (bytes)
system.tol2bus.pkt_size::total                  70144                       # Cumulative packet size per connected master and slave (bytes)
system.tol2bus.snoops                              94                       # Total snoops (count)
system.tol2bus.snoop_fanout::samples             1201                       # Request fanout histogram
system.tol2bus.snoop_fanout::mean                   3                       # Request fanout histogram
system.tol2bus.snoop_fanout::stdev                  0                       # Request fanout histogram
system.tol2bus.snoop_fanout::underflows             0      0.00%      0.00% # Request fanout histogram
system.tol2bus.snoop_fanout::0                      0      0.00%      0.00% # Request fanout histogram
system.tol2bus.snoop_fanout::1                      0      0.00%      0.00% # Request fanout histogram
system.tol2bus.snoop_fanout::2                      0      0.00%      0.00% # Request fanout histogram
system.tol2bus.snoop_fanout::3                   1201    100.00%    100.00% # Request fanout histogram
system.tol2bus.snoop_fanout::4                      0      0.00%    100.00% # Request fanout histogram
system.tol2bus.snoop_fanout::overflows              0      0.00%    100.00% # Request fanout histogram
system.tol2bus.snoop_fanout::min_value              3                       # Request fanout histogram
system.tol2bus.snoop_fanout::max_value              3                       # Request fanout histogram
system.tol2bus.snoop_fanout::total               1201                       # Request fanout histogram
system.tol2bus.reqLayer0.occupancy             626999                       # Layer occupancy (ticks)
system.tol2bus.reqLayer0.utilization              1.1                       # Layer utilization (%)
system.tol2bus.respLayer0.occupancy            997247                       # Layer occupancy (ticks)
system.tol2bus.respLayer0.utilization             1.8                       # Layer utilization (%)
system.tol2bus.respLayer1.occupancy            676491                       # Layer occupancy (ticks)
system.tol2bus.respLayer1.utilization             1.2                       # Layer utilization (%)
system.tol2bus.respLayer4.occupancy             83995                       # Layer occupancy (ticks)
system.tol2bus.respLayer4.utilization             0.2                       # Layer utilization (%)
system.tol2bus.respLayer5.occupancy            159749                       # Layer occupancy (ticks)
system.tol2bus.respLayer5.utilization             0.3                       # Layer utilization (%)

---------- End Simulation Statistics   ----------
