
---------- Begin Simulation Statistics ----------
sim_seconds                                  0.000047                       # Number of seconds simulated
sim_ticks                                    46778500                       # Number of ticks simulated
final_tick                                   46778500                       # Number of ticks from beginning of simulation (restored from checkpoints and never reset)
sim_freq                                 1000000000000                       # Frequency of simulated ticks
host_inst_rate                                 155253                       # Simulator instruction rate (inst/s)
host_op_rate                                   163339                       # Simulator op (including micro ops) rate (op/s)
host_tick_rate                               45392977                       # Simulator tick rate (ticks/s)
host_mem_usage                                 662292                       # Number of bytes of host memory used
host_seconds                                     1.03                       # Real time elapsed on the host
sim_insts                                      159986                       # Number of instructions simulated
sim_ops                                        168322                       # Number of ops (including micro ops) simulated
system.voltage_domain.voltage                       1                       # Voltage in Volts
system.clk_domain.clock                          1000                       # Clock period in ticks
system.mem_ctrls.bytes_read::cpu0.inst          32384                       # Number of bytes read from this memory
system.mem_ctrls.bytes_read::cpu0.data          22208                       # Number of bytes read from this memory
system.mem_ctrls.bytes_read::cpu1.inst            768                       # Number of bytes read from this memory
system.mem_ctrls.bytes_read::cpu1.data            320                       # Number of bytes read from this memory
system.mem_ctrls.bytes_read::cpu2.inst            448                       # Number of bytes read from this memory
system.mem_ctrls.bytes_read::cpu2.data            320                       # Number of bytes read from this memory
system.mem_ctrls.bytes_read::cpu3.inst            192                       # Number of bytes read from this memory
system.mem_ctrls.bytes_read::cpu3.data            256                       # Number of bytes read from this memory
system.mem_ctrls.bytes_read::total              56896                       # Number of bytes read from this memory
system.mem_ctrls.bytes_inst_read::cpu0.inst        32384                       # Number of instructions bytes read from this memory
system.mem_ctrls.bytes_inst_read::cpu1.inst          768                       # Number of instructions bytes read from this memory
system.mem_ctrls.bytes_inst_read::cpu2.inst          448                       # Number of instructions bytes read from this memory
system.mem_ctrls.bytes_inst_read::cpu3.inst          192                       # Number of instructions bytes read from this memory
system.mem_ctrls.bytes_inst_read::total         33792                       # Number of instructions bytes read from this memory
system.mem_ctrls.num_reads::cpu0.inst             506                       # Number of read requests responded to by this memory
system.mem_ctrls.num_reads::cpu0.data             347                       # Number of read requests responded to by this memory
system.mem_ctrls.num_reads::cpu1.inst              12                       # Number of read requests responded to by this memory
system.mem_ctrls.num_reads::cpu1.data               5                       # Number of read requests responded to by this memory
system.mem_ctrls.num_reads::cpu2.inst               7                       # Number of read requests responded to by this memory
system.mem_ctrls.num_reads::cpu2.data               5                       # Number of read requests responded to by this memory
system.mem_ctrls.num_reads::cpu3.inst               3                       # Number of read requests responded to by this memory
system.mem_ctrls.num_reads::cpu3.data               4                       # Number of read requests responded to by this memory
system.mem_ctrls.num_reads::total                 889                       # Number of read requests responded to by this memory
system.mem_ctrls.bw_read::cpu0.inst         692283848                       # Total read bandwidth from this memory (bytes/s)
system.mem_ctrls.bw_read::cpu0.data         474748015                       # Total read bandwidth from this memory (bytes/s)
system.mem_ctrls.bw_read::cpu1.inst          16417799                       # Total read bandwidth from this memory (bytes/s)
system.mem_ctrls.bw_read::cpu1.data           6840749                       # Total read bandwidth from this memory (bytes/s)
system.mem_ctrls.bw_read::cpu2.inst           9577049                       # Total read bandwidth from this memory (bytes/s)
system.mem_ctrls.bw_read::cpu2.data           6840749                       # Total read bandwidth from this memory (bytes/s)
system.mem_ctrls.bw_read::cpu3.inst           4104450                       # Total read bandwidth from this memory (bytes/s)
system.mem_ctrls.bw_read::cpu3.data           5472600                       # Total read bandwidth from this memory (bytes/s)
system.mem_ctrls.bw_read::total            1216285259                       # Total read bandwidth from this memory (bytes/s)
system.mem_ctrls.bw_inst_read::cpu0.inst    692283848                       # Instruction read bandwidth from this memory (bytes/s)
system.mem_ctrls.bw_inst_read::cpu1.inst     16417799                       # Instruction read bandwidth from this memory (bytes/s)
system.mem_ctrls.bw_inst_read::cpu2.inst      9577049                       # Instruction read bandwidth from this memory (bytes/s)
system.mem_ctrls.bw_inst_read::cpu3.inst      4104450                       # Instruction read bandwidth from this memory (bytes/s)
system.mem_ctrls.bw_inst_read::total        722383146                       # Instruction read bandwidth from this memory (bytes/s)
system.mem_ctrls.bw_total::cpu0.inst        692283848                       # Total bandwidth to/from this memory (bytes/s)
system.mem_ctrls.bw_total::cpu0.data        474748015                       # Total bandwidth to/from this memory (bytes/s)
system.mem_ctrls.bw_total::cpu1.inst         16417799                       # Total bandwidth to/from this memory (bytes/s)
system.mem_ctrls.bw_total::cpu1.data          6840749                       # Total bandwidth to/from this memory (bytes/s)
system.mem_ctrls.bw_total::cpu2.inst          9577049                       # Total bandwidth to/from this memory (bytes/s)
system.mem_ctrls.bw_total::cpu2.data          6840749                       # Total bandwidth to/from this memory (bytes/s)
system.mem_ctrls.bw_total::cpu3.inst          4104450                       # Total bandwidth to/from this memory (bytes/s)
system.mem_ctrls.bw_total::cpu3.data          5472600                       # Total bandwidth to/from this memory (bytes/s)
system.mem_ctrls.bw_total::total           1216285259                       # Total bandwidth to/from this memory (bytes/s)
system.mem_ctrls.readReqs                         890                       # Number of read requests accepted
system.mem_ctrls.writeReqs                          0                       # Number of write requests accepted
system.mem_ctrls.readBursts                       890                       # Number of DRAM read bursts, including those serviced by the write queue
system.mem_ctrls.writeBursts                        0                       # Number of DRAM write bursts, including those merged in the write queue
system.mem_ctrls.bytesReadDRAM                  56896                       # Total number of bytes read from DRAM
system.mem_ctrls.bytesReadWrQ                       0                       # Total number of bytes read from write queue
system.mem_ctrls.bytesWritten                       0                       # Total number of bytes written to DRAM
system.mem_ctrls.bytesReadSys                   56960                       # Total read bytes from the system interface side
system.mem_ctrls.bytesWrittenSys                    0                       # Total written bytes from the system interface side
system.mem_ctrls.servicedByWrQ                      0                       # Number of DRAM read bursts serviced by the write queue
system.mem_ctrls.mergedWrBursts                     0                       # Number of DRAM write bursts merged with an existing one
system.mem_ctrls.neitherReadNorWriteReqs           12                       # Number of requests that are neither read nor write
system.mem_ctrls.perBankRdBursts::0               114                       # Per bank write bursts
system.mem_ctrls.perBankRdBursts::1               122                       # Per bank write bursts
system.mem_ctrls.perBankRdBursts::2               133                       # Per bank write bursts
system.mem_ctrls.perBankRdBursts::3               189                       # Per bank write bursts
system.mem_ctrls.perBankRdBursts::4                36                       # Per bank write bursts
system.mem_ctrls.perBankRdBursts::5                17                       # Per bank write bursts
system.mem_ctrls.perBankRdBursts::6                82                       # Per bank write bursts
system.mem_ctrls.perBankRdBursts::7                31                       # Per bank write bursts
system.mem_ctrls.perBankRdBursts::8                14                       # Per bank write bursts
system.mem_ctrls.perBankRdBursts::9                10                       # Per bank write bursts
system.mem_ctrls.perBankRdBursts::10                0                       # Per bank write bursts
system.mem_ctrls.perBankRdBursts::11               12                       # Per bank write bursts
system.mem_ctrls.perBankRdBursts::12                6                       # Per bank write bursts
system.mem_ctrls.perBankRdBursts::13               33                       # Per bank write bursts
system.mem_ctrls.perBankRdBursts::14               37                       # Per bank write bursts
system.mem_ctrls.perBankRdBursts::15               53                       # Per bank write bursts
system.mem_ctrls.perBankWrBursts::0                 0                       # Per bank write bursts
system.mem_ctrls.perBankWrBursts::1                 0                       # Per bank write bursts
system.mem_ctrls.perBankWrBursts::2                 0                       # Per bank write bursts
system.mem_ctrls.perBankWrBursts::3                 0                       # Per bank write bursts
system.mem_ctrls.perBankWrBursts::4                 0                       # Per bank write bursts
system.mem_ctrls.perBankWrBursts::5                 0                       # Per bank write bursts
system.mem_ctrls.perBankWrBursts::6                 0                       # Per bank write bursts
system.mem_ctrls.perBankWrBursts::7                 0                       # Per bank write bursts
system.mem_ctrls.perBankWrBursts::8                 0                       # Per bank write bursts
system.mem_ctrls.perBankWrBursts::9                 0                       # Per bank write bursts
system.mem_ctrls.perBankWrBursts::10                0                       # Per bank write bursts
system.mem_ctrls.perBankWrBursts::11                0                       # Per bank write bursts
system.mem_ctrls.perBankWrBursts::12                0                       # Per bank write bursts
system.mem_ctrls.perBankWrBursts::13                0                       # Per bank write bursts
system.mem_ctrls.perBankWrBursts::14                0                       # Per bank write bursts
system.mem_ctrls.perBankWrBursts::15                0                       # Per bank write bursts
system.mem_ctrls.numRdRetry                         0                       # Number of times read queue was full causing retry
system.mem_ctrls.numWrRetry                         0                       # Number of times write queue was full causing retry
system.mem_ctrls.totGap                      46739000                       # Total gap between requests
system.mem_ctrls.readPktSize::0                     0                       # Read request sizes (log2)
system.mem_ctrls.readPktSize::1                     0                       # Read request sizes (log2)
system.mem_ctrls.readPktSize::2                     0                       # Read request sizes (log2)
system.mem_ctrls.readPktSize::3                     0                       # Read request sizes (log2)
system.mem_ctrls.readPktSize::4                     0                       # Read request sizes (log2)
system.mem_ctrls.readPktSize::5                     0                       # Read request sizes (log2)
system.mem_ctrls.readPktSize::6                   890                       # Read request sizes (log2)
system.mem_ctrls.writePktSize::0                    0                       # Write request sizes (log2)
system.mem_ctrls.writePktSize::1                    0                       # Write request sizes (log2)
system.mem_ctrls.writePktSize::2                    0                       # Write request sizes (log2)
system.mem_ctrls.writePktSize::3                    0                       # Write request sizes (log2)
system.mem_ctrls.writePktSize::4                    0                       # Write request sizes (log2)
system.mem_ctrls.writePktSize::5                    0                       # Write request sizes (log2)
system.mem_ctrls.writePktSize::6                    0                       # Write request sizes (log2)
system.mem_ctrls.rdQLenPdf::0                     484                       # What read queue length does an incoming req see
system.mem_ctrls.rdQLenPdf::1                     294                       # What read queue length does an incoming req see
system.mem_ctrls.rdQLenPdf::2                      73                       # What read queue length does an incoming req see
system.mem_ctrls.rdQLenPdf::3                      27                       # What read queue length does an incoming req see
system.mem_ctrls.rdQLenPdf::4                       8                       # What read queue length does an incoming req see
system.mem_ctrls.rdQLenPdf::5                       4                       # What read queue length does an incoming req see
system.mem_ctrls.rdQLenPdf::6                       0                       # What read queue length does an incoming req see
system.mem_ctrls.rdQLenPdf::7                       0                       # What read queue length does an incoming req see
system.mem_ctrls.rdQLenPdf::8                       0                       # What read queue length does an incoming req see
system.mem_ctrls.rdQLenPdf::9                       0                       # What read queue length does an incoming req see
system.mem_ctrls.rdQLenPdf::10                      0                       # What read queue length does an incoming req see
system.mem_ctrls.rdQLenPdf::11                      0                       # What read queue length does an incoming req see
system.mem_ctrls.rdQLenPdf::12                      0                       # What read queue length does an incoming req see
system.mem_ctrls.rdQLenPdf::13                      0                       # What read queue length does an incoming req see
system.mem_ctrls.rdQLenPdf::14                      0                       # What read queue length does an incoming req see
system.mem_ctrls.rdQLenPdf::15                      0                       # What read queue length does an incoming req see
system.mem_ctrls.rdQLenPdf::16                      0                       # What read queue length does an incoming req see
system.mem_ctrls.rdQLenPdf::17                      0                       # What read queue length does an incoming req see
system.mem_ctrls.rdQLenPdf::18                      0                       # What read queue length does an incoming req see
system.mem_ctrls.rdQLenPdf::19                      0                       # What read queue length does an incoming req see
system.mem_ctrls.rdQLenPdf::20                      0                       # What read queue length does an incoming req see
system.mem_ctrls.rdQLenPdf::21                      0                       # What read queue length does an incoming req see
system.mem_ctrls.rdQLenPdf::22                      0                       # What read queue length does an incoming req see
system.mem_ctrls.rdQLenPdf::23                      0                       # What read queue length does an incoming req see
system.mem_ctrls.rdQLenPdf::24                      0                       # What read queue length does an incoming req see
system.mem_ctrls.rdQLenPdf::25                      0                       # What read queue length does an incoming req see
system.mem_ctrls.rdQLenPdf::26                      0                       # What read queue length does an incoming req see
system.mem_ctrls.rdQLenPdf::27                      0                       # What read queue length does an incoming req see
system.mem_ctrls.rdQLenPdf::28                      0                       # What read queue length does an incoming req see
system.mem_ctrls.rdQLenPdf::29                      0                       # What read queue length does an incoming req see
system.mem_ctrls.rdQLenPdf::30                      0                       # What read queue length does an incoming req see
system.mem_ctrls.rdQLenPdf::31                      0                       # What read queue length does an incoming req see
system.mem_ctrls.wrQLenPdf::0                       0                       # What write queue length does an incoming req see
system.mem_ctrls.wrQLenPdf::1                       0                       # What write queue length does an incoming req see
system.mem_ctrls.wrQLenPdf::2                       0                       # What write queue length does an incoming req see
system.mem_ctrls.wrQLenPdf::3                       0                       # What write queue length does an incoming req see
system.mem_ctrls.wrQLenPdf::4                       0                       # What write queue length does an incoming req see
system.mem_ctrls.wrQLenPdf::5                       0                       # What write queue length does an incoming req see
system.mem_ctrls.wrQLenPdf::6                       0                       # What write queue length does an incoming req see
system.mem_ctrls.wrQLenPdf::7                       0                       # What write queue length does an incoming req see
system.mem_ctrls.wrQLenPdf::8                       0                       # What write queue length does an incoming req see
system.mem_ctrls.wrQLenPdf::9                       0                       # What write queue length does an incoming req see
system.mem_ctrls.wrQLenPdf::10                      0                       # What write queue length does an incoming req see
system.mem_ctrls.wrQLenPdf::11                      0                       # What write queue length does an incoming req see
system.mem_ctrls.wrQLenPdf::12                      0                       # What write queue length does an incoming req see
system.mem_ctrls.wrQLenPdf::13                      0                       # What write queue length does an incoming req see
system.mem_ctrls.wrQLenPdf::14                      0                       # What write queue length does an incoming req see
system.mem_ctrls.wrQLenPdf::15                      0                       # What write queue length does an incoming req see
system.mem_ctrls.wrQLenPdf::16                      0                       # What write queue length does an incoming req see
system.mem_ctrls.wrQLenPdf::17                      0                       # What write queue length does an incoming req see
system.mem_ctrls.wrQLenPdf::18                      0                       # What write queue length does an incoming req see
system.mem_ctrls.wrQLenPdf::19                      0                       # What write queue length does an incoming req see
system.mem_ctrls.wrQLenPdf::20                      0                       # What write queue length does an incoming req see
system.mem_ctrls.wrQLenPdf::21                      0                       # What write queue length does an incoming req see
system.mem_ctrls.wrQLenPdf::22                      0                       # What write queue length does an incoming req see
system.mem_ctrls.wrQLenPdf::23                      0                       # What write queue length does an incoming req see
system.mem_ctrls.wrQLenPdf::24                      0                       # What write queue length does an incoming req see
system.mem_ctrls.wrQLenPdf::25                      0                       # What write queue length does an incoming req see
system.mem_ctrls.wrQLenPdf::26                      0                       # What write queue length does an incoming req see
system.mem_ctrls.wrQLenPdf::27                      0                       # What write queue length does an incoming req see
system.mem_ctrls.wrQLenPdf::28                      0                       # What write queue length does an incoming req see
system.mem_ctrls.wrQLenPdf::29                      0                       # What write queue length does an incoming req see
system.mem_ctrls.wrQLenPdf::30                      0                       # What write queue length does an incoming req see
system.mem_ctrls.wrQLenPdf::31                      0                       # What write queue length does an incoming req see
system.mem_ctrls.wrQLenPdf::32                      0                       # What write queue length does an incoming req see
system.mem_ctrls.wrQLenPdf::33                      0                       # What write queue length does an incoming req see
system.mem_ctrls.wrQLenPdf::34                      0                       # What write queue length does an incoming req see
system.mem_ctrls.wrQLenPdf::35                      0                       # What write queue length does an incoming req see
system.mem_ctrls.wrQLenPdf::36                      0                       # What write queue length does an incoming req see
system.mem_ctrls.wrQLenPdf::37                      0                       # What write queue length does an incoming req see
system.mem_ctrls.wrQLenPdf::38                      0                       # What write queue length does an incoming req see
system.mem_ctrls.wrQLenPdf::39                      0                       # What write queue length does an incoming req see
system.mem_ctrls.wrQLenPdf::40                      0                       # What write queue length does an incoming req see
system.mem_ctrls.wrQLenPdf::41                      0                       # What write queue length does an incoming req see
system.mem_ctrls.wrQLenPdf::42                      0                       # What write queue length does an incoming req see
system.mem_ctrls.wrQLenPdf::43                      0                       # What write queue length does an incoming req see
system.mem_ctrls.wrQLenPdf::44                      0                       # What write queue length does an incoming req see
system.mem_ctrls.wrQLenPdf::45                      0                       # What write queue length does an incoming req see
system.mem_ctrls.wrQLenPdf::46                      0                       # What write queue length does an incoming req see
system.mem_ctrls.wrQLenPdf::47                      0                       # What write queue length does an incoming req see
system.mem_ctrls.wrQLenPdf::48                      0                       # What write queue length does an incoming req see
system.mem_ctrls.wrQLenPdf::49                      0                       # What write queue length does an incoming req see
system.mem_ctrls.wrQLenPdf::50                      0                       # What write queue length does an incoming req see
system.mem_ctrls.wrQLenPdf::51                      0                       # What write queue length does an incoming req see
system.mem_ctrls.wrQLenPdf::52                      0                       # What write queue length does an incoming req see
system.mem_ctrls.wrQLenPdf::53                      0                       # What write queue length does an incoming req see
system.mem_ctrls.wrQLenPdf::54                      0                       # What write queue length does an incoming req see
system.mem_ctrls.wrQLenPdf::55                      0                       # What write queue length does an incoming req see
system.mem_ctrls.wrQLenPdf::56                      0                       # What write queue length does an incoming req see
system.mem_ctrls.wrQLenPdf::57                      0                       # What write queue length does an incoming req see
system.mem_ctrls.wrQLenPdf::58                      0                       # What write queue length does an incoming req see
system.mem_ctrls.wrQLenPdf::59                      0                       # What write queue length does an incoming req see
system.mem_ctrls.wrQLenPdf::60                      0                       # What write queue length does an incoming req see
system.mem_ctrls.wrQLenPdf::61                      0                       # What write queue length does an incoming req see
system.mem_ctrls.wrQLenPdf::62                      0                       # What write queue length does an incoming req see
system.mem_ctrls.wrQLenPdf::63                      0                       # What write queue length does an incoming req see
system.mem_ctrls.bytesPerActivate::samples          187                       # Bytes accessed per row activation
system.mem_ctrls.bytesPerActivate::mean    304.256684                       # Bytes accessed per row activation
system.mem_ctrls.bytesPerActivate::gmean   181.666174                       # Bytes accessed per row activation
system.mem_ctrls.bytesPerActivate::stdev   318.989699                       # Bytes accessed per row activation
system.mem_ctrls.bytesPerActivate::0-127           69     36.90%     36.90% # Bytes accessed per row activation
system.mem_ctrls.bytesPerActivate::128-255           44     23.53%     60.43% # Bytes accessed per row activation
system.mem_ctrls.bytesPerActivate::256-383           21     11.23%     71.66% # Bytes accessed per row activation
system.mem_ctrls.bytesPerActivate::384-511           10      5.35%     77.01% # Bytes accessed per row activation
system.mem_ctrls.bytesPerActivate::512-639            8      4.28%     81.28% # Bytes accessed per row activation
system.mem_ctrls.bytesPerActivate::640-767            9      4.81%     86.10% # Bytes accessed per row activation
system.mem_ctrls.bytesPerActivate::768-895            4      2.14%     88.24% # Bytes accessed per row activation
system.mem_ctrls.bytesPerActivate::896-1023            4      2.14%     90.37% # Bytes accessed per row activation
system.mem_ctrls.bytesPerActivate::1024-1151           18      9.63%    100.00% # Bytes accessed per row activation
system.mem_ctrls.bytesPerActivate::total          187                       # Bytes accessed per row activation
system.mem_ctrls.totQLat                      8862500                       # Total ticks spent queuing
system.mem_ctrls.totMemAccLat                25531250                       # Total ticks spent from burst creation until serviced by the DRAM
system.mem_ctrls.totBusLat                    4445000                       # Total ticks spent in databus transfers
system.mem_ctrls.avgQLat                      9957.87                       # Average queueing delay per DRAM burst
system.mem_ctrls.avgBusLat                    4994.38                       # Average bus latency per DRAM burst
system.mem_ctrls.avgMemAccLat                28686.80                       # Average memory access latency per DRAM burst
system.mem_ctrls.avgRdBW                      1216.29                       # Average DRAM read bandwidth in MiByte/s
system.mem_ctrls.avgWrBW                         0.00                       # Average achieved write bandwidth in MiByte/s
system.mem_ctrls.avgRdBWSys                   1217.65                       # Average system read bandwidth in MiByte/s
system.mem_ctrls.avgWrBWSys                      0.00                       # Average system write bandwidth in MiByte/s
system.mem_ctrls.peakBW                      12800.00                       # Theoretical peak bandwidth in MiByte/s
system.mem_ctrls.busUtil                         9.50                       # Data bus utilization in percentage
system.mem_ctrls.busUtilRead                     9.50                       # Data bus utilization in percentage for reads
system.mem_ctrls.busUtilWrite                    0.00                       # Data bus utilization in percentage for writes
system.mem_ctrls.avgRdQLen                       1.71                       # Average read queue length when enqueuing
system.mem_ctrls.avgWrQLen                       0.00                       # Average write queue length when enqueuing
system.mem_ctrls.readRowHits                      702                       # Number of row buffer hits during reads
system.mem_ctrls.writeRowHits                       0                       # Number of row buffer hits during writes
system.mem_ctrls.readRowHitRate                 78.88                       # Row buffer hit rate for reads
system.mem_ctrls.writeRowHitRate                  nan                       # Row buffer hit rate for writes
system.mem_ctrls.avgGap                      52515.73                       # Average gap between requests
system.mem_ctrls.pageHitRate                    78.88                       # Row buffer hit rate, read and write combined
system.mem_ctrls_0.actEnergy                  1194480                       # Energy for activate commands per rank (pJ)
system.mem_ctrls_0.preEnergy                   651750                       # Energy for precharge commands per rank (pJ)
system.mem_ctrls_0.readEnergy                 5647200                       # Energy for read commands per rank (pJ)
system.mem_ctrls_0.writeEnergy                      0                       # Energy for write commands per rank (pJ)
system.mem_ctrls_0.refreshEnergy              3051360                       # Energy for refresh commands per rank (pJ)
system.mem_ctrls_0.actBackEnergy             31968450                       # Energy for active background per rank (pJ)
system.mem_ctrls_0.preBackEnergy               144000                       # Energy for precharge background per rank (pJ)
system.mem_ctrls_0.totalEnergy               42657240                       # Total energy per rank (pJ)
system.mem_ctrls_0.averagePower            908.035549                       # Core power per rank (mW)
system.mem_ctrls_0.memoryStateTime::IDLE        60250                       # Time in different power states
system.mem_ctrls_0.memoryStateTime::REF       1300000                       # Time in different power states
system.mem_ctrls_0.memoryStateTime::PRE_PDN            0                       # Time in different power states
system.mem_ctrls_0.memoryStateTime::ACT      45371000                       # Time in different power states
system.mem_ctrls_0.memoryStateTime::ACT_PDN            0                       # Time in different power states
system.mem_ctrls_1.actEnergy                   219240                       # Energy for activate commands per rank (pJ)
system.mem_ctrls_1.preEnergy                   119625                       # Energy for precharge commands per rank (pJ)
system.mem_ctrls_1.readEnergy                 1287000                       # Energy for read commands per rank (pJ)
system.mem_ctrls_1.writeEnergy                      0                       # Energy for write commands per rank (pJ)
system.mem_ctrls_1.refreshEnergy              3051360                       # Energy for refresh commands per rank (pJ)
system.mem_ctrls_1.actBackEnergy             24629985                       # Energy for active background per rank (pJ)
system.mem_ctrls_1.preBackEnergy              6585750                       # Energy for precharge background per rank (pJ)
system.mem_ctrls_1.totalEnergy               35892960                       # Total energy per rank (pJ)
system.mem_ctrls_1.averagePower            763.923805                       # Core power per rank (mW)
system.mem_ctrls_1.memoryStateTime::IDLE     10781000                       # Time in different power states
system.mem_ctrls_1.memoryStateTime::REF       1300000                       # Time in different power states
system.mem_ctrls_1.memoryStateTime::PRE_PDN            0                       # Time in different power states
system.mem_ctrls_1.memoryStateTime::ACT      34657750                       # Time in different power states
system.mem_ctrls_1.memoryStateTime::ACT_PDN            0                       # Time in different power states
system.cpu0.branchPred.lookups                   9253                       # Number of BP lookups
system.cpu0.branchPred.condPredicted             7124                       # Number of conditional branches predicted
system.cpu0.branchPred.condIncorrect             1019                       # Number of conditional branches incorrect
system.cpu0.branchPred.BTBLookups                7261                       # Number of BTB lookups
system.cpu0.branchPred.BTBHits                   4130                       # Number of BTB hits
system.cpu0.branchPred.BTBCorrect                   0                       # Number of correct BTB predictions (this stat may not work properly.
system.cpu0.branchPred.BTBHitPct            56.879218                       # BTB Hit Percentage
system.cpu0.branchPred.usedRAS                    815                       # Number of times the RAS was used to get a target.
system.cpu0.branchPred.RASInCorrect                14                       # Number of incorrect RAS predictions.
system.cpu_voltage_domain.voltage                   1                       # Voltage in Volts
system.cpu_clk_domain.clock                       500                       # Clock period in ticks
system.cpu0.dstage2_mmu.stage2_tlb.walker.walks            0                       # Table walker walks requested
system.cpu0.dstage2_mmu.stage2_tlb.walker.walkRequestOrigin_Requested::Data            0                       # Table walker requests started/completed, data/inst
system.cpu0.dstage2_mmu.stage2_tlb.walker.walkRequestOrigin_Requested::Inst            0                       # Table walker requests started/completed, data/inst
system.cpu0.dstage2_mmu.stage2_tlb.walker.walkRequestOrigin_Requested::total            0                       # Table walker requests started/completed, data/inst
system.cpu0.dstage2_mmu.stage2_tlb.walker.walkRequestOrigin_Completed::Data            0                       # Table walker requests started/completed, data/inst
system.cpu0.dstage2_mmu.stage2_tlb.walker.walkRequestOrigin_Completed::Inst            0                       # Table walker requests started/completed, data/inst
system.cpu0.dstage2_mmu.stage2_tlb.walker.walkRequestOrigin_Completed::total            0                       # Table walker requests started/completed, data/inst
system.cpu0.dstage2_mmu.stage2_tlb.walker.walkRequestOrigin::total            0                       # Table walker requests started/completed, data/inst
system.cpu0.dstage2_mmu.stage2_tlb.inst_hits            0                       # ITB inst hits
system.cpu0.dstage2_mmu.stage2_tlb.inst_misses            0                       # ITB inst misses
system.cpu0.dstage2_mmu.stage2_tlb.read_hits            0                       # DTB read hits
system.cpu0.dstage2_mmu.stage2_tlb.read_misses            0                       # DTB read misses
system.cpu0.dstage2_mmu.stage2_tlb.write_hits            0                       # DTB write hits
system.cpu0.dstage2_mmu.stage2_tlb.write_misses            0                       # DTB write misses
system.cpu0.dstage2_mmu.stage2_tlb.flush_tlb            0                       # Number of times complete TLB was flushed
system.cpu0.dstage2_mmu.stage2_tlb.flush_tlb_mva            0                       # Number of times TLB was flushed by MVA
system.cpu0.dstage2_mmu.stage2_tlb.flush_tlb_mva_asid            0                       # Number of times TLB was flushed by MVA & ASID
system.cpu0.dstage2_mmu.stage2_tlb.flush_tlb_asid            0                       # Number of times TLB was flushed by ASID
system.cpu0.dstage2_mmu.stage2_tlb.flush_entries            0                       # Number of entries that have been flushed from TLB
system.cpu0.dstage2_mmu.stage2_tlb.align_faults            0                       # Number of TLB faults due to alignment restrictions
system.cpu0.dstage2_mmu.stage2_tlb.prefetch_faults            0                       # Number of TLB faults due to prefetch
system.cpu0.dstage2_mmu.stage2_tlb.domain_faults            0                       # Number of TLB faults due to domain restrictions
system.cpu0.dstage2_mmu.stage2_tlb.perms_faults            0                       # Number of TLB faults due to permissions restrictions
system.cpu0.dstage2_mmu.stage2_tlb.read_accesses            0                       # DTB read accesses
system.cpu0.dstage2_mmu.stage2_tlb.write_accesses            0                       # DTB write accesses
system.cpu0.dstage2_mmu.stage2_tlb.inst_accesses            0                       # ITB inst accesses
system.cpu0.dstage2_mmu.stage2_tlb.hits             0                       # DTB hits
system.cpu0.dstage2_mmu.stage2_tlb.misses            0                       # DTB misses
system.cpu0.dstage2_mmu.stage2_tlb.accesses            0                       # DTB accesses
system.cpu0.dtb.walker.walks                        0                       # Table walker walks requested
system.cpu0.dtb.walker.walkRequestOrigin_Requested::Data            0                       # Table walker requests started/completed, data/inst
system.cpu0.dtb.walker.walkRequestOrigin_Requested::Inst            0                       # Table walker requests started/completed, data/inst
system.cpu0.dtb.walker.walkRequestOrigin_Requested::total            0                       # Table walker requests started/completed, data/inst
system.cpu0.dtb.walker.walkRequestOrigin_Completed::Data            0                       # Table walker requests started/completed, data/inst
system.cpu0.dtb.walker.walkRequestOrigin_Completed::Inst            0                       # Table walker requests started/completed, data/inst
system.cpu0.dtb.walker.walkRequestOrigin_Completed::total            0                       # Table walker requests started/completed, data/inst
system.cpu0.dtb.walker.walkRequestOrigin::total            0                       # Table walker requests started/completed, data/inst
system.cpu0.dtb.inst_hits                           0                       # ITB inst hits
system.cpu0.dtb.inst_misses                         0                       # ITB inst misses
system.cpu0.dtb.read_hits                           0                       # DTB read hits
system.cpu0.dtb.read_misses                         0                       # DTB read misses
system.cpu0.dtb.write_hits                          0                       # DTB write hits
system.cpu0.dtb.write_misses                        0                       # DTB write misses
system.cpu0.dtb.flush_tlb                           0                       # Number of times complete TLB was flushed
system.cpu0.dtb.flush_tlb_mva                       0                       # Number of times TLB was flushed by MVA
system.cpu0.dtb.flush_tlb_mva_asid                  0                       # Number of times TLB was flushed by MVA & ASID
system.cpu0.dtb.flush_tlb_asid                      0                       # Number of times TLB was flushed by ASID
system.cpu0.dtb.flush_entries                       0                       # Number of entries that have been flushed from TLB
system.cpu0.dtb.align_faults                        0                       # Number of TLB faults due to alignment restrictions
system.cpu0.dtb.prefetch_faults                     0                       # Number of TLB faults due to prefetch
system.cpu0.dtb.domain_faults                       0                       # Number of TLB faults due to domain restrictions
system.cpu0.dtb.perms_faults                        0                       # Number of TLB faults due to permissions restrictions
system.cpu0.dtb.read_accesses                       0                       # DTB read accesses
system.cpu0.dtb.write_accesses                      0                       # DTB write accesses
system.cpu0.dtb.inst_accesses                       0                       # ITB inst accesses
system.cpu0.dtb.hits                                0                       # DTB hits
system.cpu0.dtb.misses                              0                       # DTB misses
system.cpu0.dtb.accesses                            0                       # DTB accesses
system.cpu0.istage2_mmu.stage2_tlb.walker.walks            0                       # Table walker walks requested
system.cpu0.istage2_mmu.stage2_tlb.walker.walkRequestOrigin_Requested::Data            0                       # Table walker requests started/completed, data/inst
system.cpu0.istage2_mmu.stage2_tlb.walker.walkRequestOrigin_Requested::Inst            0                       # Table walker requests started/completed, data/inst
system.cpu0.istage2_mmu.stage2_tlb.walker.walkRequestOrigin_Requested::total            0                       # Table walker requests started/completed, data/inst
system.cpu0.istage2_mmu.stage2_tlb.walker.walkRequestOrigin_Completed::Data            0                       # Table walker requests started/completed, data/inst
system.cpu0.istage2_mmu.stage2_tlb.walker.walkRequestOrigin_Completed::Inst            0                       # Table walker requests started/completed, data/inst
system.cpu0.istage2_mmu.stage2_tlb.walker.walkRequestOrigin_Completed::total            0                       # Table walker requests started/completed, data/inst
system.cpu0.istage2_mmu.stage2_tlb.walker.walkRequestOrigin::total            0                       # Table walker requests started/completed, data/inst
system.cpu0.istage2_mmu.stage2_tlb.inst_hits            0                       # ITB inst hits
system.cpu0.istage2_mmu.stage2_tlb.inst_misses            0                       # ITB inst misses
system.cpu0.istage2_mmu.stage2_tlb.read_hits            0                       # DTB read hits
system.cpu0.istage2_mmu.stage2_tlb.read_misses            0                       # DTB read misses
system.cpu0.istage2_mmu.stage2_tlb.write_hits            0                       # DTB write hits
system.cpu0.istage2_mmu.stage2_tlb.write_misses            0                       # DTB write misses
system.cpu0.istage2_mmu.stage2_tlb.flush_tlb            0                       # Number of times complete TLB was flushed
system.cpu0.istage2_mmu.stage2_tlb.flush_tlb_mva            0                       # Number of times TLB was flushed by MVA
system.cpu0.istage2_mmu.stage2_tlb.flush_tlb_mva_asid            0                       # Number of times TLB was flushed by MVA & ASID
system.cpu0.istage2_mmu.stage2_tlb.flush_tlb_asid            0                       # Number of times TLB was flushed by ASID
system.cpu0.istage2_mmu.stage2_tlb.flush_entries            0                       # Number of entries that have been flushed from TLB
system.cpu0.istage2_mmu.stage2_tlb.align_faults            0                       # Number of TLB faults due to alignment restrictions
system.cpu0.istage2_mmu.stage2_tlb.prefetch_faults            0                       # Number of TLB faults due to prefetch
system.cpu0.istage2_mmu.stage2_tlb.domain_faults            0                       # Number of TLB faults due to domain restrictions
system.cpu0.istage2_mmu.stage2_tlb.perms_faults            0                       # Number of TLB faults due to permissions restrictions
system.cpu0.istage2_mmu.stage2_tlb.read_accesses            0                       # DTB read accesses
system.cpu0.istage2_mmu.stage2_tlb.write_accesses            0                       # DTB write accesses
system.cpu0.istage2_mmu.stage2_tlb.inst_accesses            0                       # ITB inst accesses
system.cpu0.istage2_mmu.stage2_tlb.hits             0                       # DTB hits
system.cpu0.istage2_mmu.stage2_tlb.misses            0                       # DTB misses
system.cpu0.istage2_mmu.stage2_tlb.accesses            0                       # DTB accesses
system.cpu0.itb.walker.walks                        0                       # Table walker walks requested
system.cpu0.itb.walker.walkRequestOrigin_Requested::Data            0                       # Table walker requests started/completed, data/inst
system.cpu0.itb.walker.walkRequestOrigin_Requested::Inst            0                       # Table walker requests started/completed, data/inst
system.cpu0.itb.walker.walkRequestOrigin_Requested::total            0                       # Table walker requests started/completed, data/inst
system.cpu0.itb.walker.walkRequestOrigin_Completed::Data            0                       # Table walker requests started/completed, data/inst
system.cpu0.itb.walker.walkRequestOrigin_Completed::Inst            0                       # Table walker requests started/completed, data/inst
system.cpu0.itb.walker.walkRequestOrigin_Completed::total            0                       # Table walker requests started/completed, data/inst
system.cpu0.itb.walker.walkRequestOrigin::total            0                       # Table walker requests started/completed, data/inst
system.cpu0.itb.inst_hits                           0                       # ITB inst hits
system.cpu0.itb.inst_misses                         0                       # ITB inst misses
system.cpu0.itb.read_hits                           0                       # DTB read hits
system.cpu0.itb.read_misses                         0                       # DTB read misses
system.cpu0.itb.write_hits                          0                       # DTB write hits
system.cpu0.itb.write_misses                        0                       # DTB write misses
system.cpu0.itb.flush_tlb                           0                       # Number of times complete TLB was flushed
system.cpu0.itb.flush_tlb_mva                       0                       # Number of times TLB was flushed by MVA
system.cpu0.itb.flush_tlb_mva_asid                  0                       # Number of times TLB was flushed by MVA & ASID
system.cpu0.itb.flush_tlb_asid                      0                       # Number of times TLB was flushed by ASID
system.cpu0.itb.flush_entries                       0                       # Number of entries that have been flushed from TLB
system.cpu0.itb.align_faults                        0                       # Number of TLB faults due to alignment restrictions
system.cpu0.itb.prefetch_faults                     0                       # Number of TLB faults due to prefetch
system.cpu0.itb.domain_faults                       0                       # Number of TLB faults due to domain restrictions
system.cpu0.itb.perms_faults                        0                       # Number of TLB faults due to permissions restrictions
system.cpu0.itb.read_accesses                       0                       # DTB read accesses
system.cpu0.itb.write_accesses                      0                       # DTB write accesses
system.cpu0.itb.inst_accesses                       0                       # ITB inst accesses
system.cpu0.itb.hits                                0                       # DTB hits
system.cpu0.itb.misses                              0                       # DTB misses
system.cpu0.itb.accesses                            0                       # DTB accesses
system.cpu0.workload.num_syscalls                 106                       # Number of system calls
system.cpu0.numCycles                           93558                       # number of cpu cycles simulated
system.cpu0.numWorkItemsStarted                     0                       # number of work items this cpu started
system.cpu0.numWorkItemsCompleted                   0                       # number of work items this cpu completed
system.cpu0.fetch.icacheStallCycles             20546                       # Number of cycles fetch is stalled on an Icache miss
system.cpu0.fetch.Insts                         61192                       # Number of instructions fetch has processed
system.cpu0.fetch.Branches                       9253                       # Number of branches that fetch encountered
system.cpu0.fetch.predictedBranches              4945                       # Number of branches that fetch has predicted taken
system.cpu0.fetch.Cycles                        29915                       # Number of cycles fetch has run and was not squashing or blocked
system.cpu0.fetch.SquashCycles                   2157                       # Number of cycles fetch has spent squashing
system.cpu0.fetch.MiscStallCycles                   2                       # Number of cycles fetch has spent waiting on interrupts, or bad addresses, or out of MSHRs
system.cpu0.fetch.PendingTrapStallCycles            5                       # Number of stall cycles due to pending traps
system.cpu0.fetch.IcacheWaitRetryStallCycles            2                       # Number of stall cycles due to full MSHR
system.cpu0.fetch.CacheLines                     7786                       # Number of cache lines fetched
system.cpu0.fetch.IcacheSquashes                  632                       # Number of outstanding Icache misses that were squashed
system.cpu0.fetch.rateDist::samples             51548                       # Number of instructions fetched each cycle (Total)
system.cpu0.fetch.rateDist::mean             1.356580                       # Number of instructions fetched each cycle (Total)
system.cpu0.fetch.rateDist::stdev            2.759586                       # Number of instructions fetched each cycle (Total)
system.cpu0.fetch.rateDist::underflows              0      0.00%      0.00% # Number of instructions fetched each cycle (Total)
system.cpu0.fetch.rateDist::0                   39868     77.34%     77.34% # Number of instructions fetched each cycle (Total)
system.cpu0.fetch.rateDist::1                     816      1.58%     78.92% # Number of instructions fetched each cycle (Total)
system.cpu0.fetch.rateDist::2                    1021      1.98%     80.91% # Number of instructions fetched each cycle (Total)
system.cpu0.fetch.rateDist::3                     637      1.24%     82.14% # Number of instructions fetched each cycle (Total)
system.cpu0.fetch.rateDist::4                     865      1.68%     83.82% # Number of instructions fetched each cycle (Total)
system.cpu0.fetch.rateDist::5                     478      0.93%     84.75% # Number of instructions fetched each cycle (Total)
system.cpu0.fetch.rateDist::6                     833      1.62%     86.36% # Number of instructions fetched each cycle (Total)
system.cpu0.fetch.rateDist::7                    1928      3.74%     90.10% # Number of instructions fetched each cycle (Total)
system.cpu0.fetch.rateDist::8                    5102      9.90%    100.00% # Number of instructions fetched each cycle (Total)
system.cpu0.fetch.rateDist::overflows               0      0.00%    100.00% # Number of instructions fetched each cycle (Total)
system.cpu0.fetch.rateDist::min_value               0                       # Number of instructions fetched each cycle (Total)
system.cpu0.fetch.rateDist::max_value               8                       # Number of instructions fetched each cycle (Total)
system.cpu0.fetch.rateDist::total               51548                       # Number of instructions fetched each cycle (Total)
system.cpu0.fetch.branchRate                 0.098901                       # Number of branch fetches per cycle
system.cpu0.fetch.rate                       0.654054                       # Number of inst fetches per cycle
system.cpu0.decode.IdleCycles                   16745                       # Number of cycles decode is idle
system.cpu0.decode.BlockedCycles                23712                       # Number of cycles decode is blocked
system.cpu0.decode.RunCycles                     9580                       # Number of cycles decode is running
system.cpu0.decode.UnblockCycles                  733                       # Number of cycles decode is unblocking
system.cpu0.decode.SquashCycles                   778                       # Number of cycles decode is squashing
system.cpu0.decode.BranchResolved                 871                       # Number of times decode resolved a branch
system.cpu0.decode.BranchMispred                  320                       # Number of times decode detected a branch misprediction
system.cpu0.decode.DecodedInsts                 63463                       # Number of instructions handled by decode
system.cpu0.decode.SquashedInsts                 1104                       # Number of squashed instructions handled by decode
system.cpu0.rename.SquashCycles                   778                       # Number of cycles rename is squashing
system.cpu0.rename.IdleCycles                   17516                       # Number of cycles rename is idle
system.cpu0.rename.BlockCycles                   2361                       # Number of cycles rename is blocking
system.cpu0.rename.serializeStallCycles          8355                       # count of cycles rename stalled for serializing inst
system.cpu0.rename.RunCycles                     9497                       # Number of cycles rename is running
system.cpu0.rename.UnblockCycles                13041                       # Number of cycles rename is unblocking
system.cpu0.rename.RenamedInsts                 61106                       # Number of instructions processed by rename
system.cpu0.rename.IQFullEvents                    83                       # Number of times rename has blocked due to IQ full
system.cpu0.rename.LQFullEvents                   100                       # Number of times rename has blocked due to LQ full
system.cpu0.rename.SQFullEvents                 12567                       # Number of times rename has blocked due to SQ full
system.cpu0.rename.RenamedOperands              70177                       # Number of destination operands rename has renamed
system.cpu0.rename.RenameLookups               293262                       # Number of register rename lookups that rename has made
system.cpu0.rename.int_rename_lookups           84400                       # Number of integer rename lookups
system.cpu0.rename.fp_rename_lookups               22                       # Number of floating rename lookups
system.cpu0.rename.CommittedMaps                52001                       # Number of HB maps that are committed
system.cpu0.rename.UndoneMaps                   18176                       # Number of HB maps that are undone due to squashing
system.cpu0.rename.serializingInsts               127                       # count of serializing insts renamed
system.cpu0.rename.tempSerializingInsts           127                       # count of temporary serializing insts renamed
system.cpu0.rename.skidInsts                     3528                       # count of insts added to the skid buffer
system.cpu0.memDep0.insertedLoads               10291                       # Number of loads inserted to the mem dependence unit.
system.cpu0.memDep0.insertedStores               7836                       # Number of stores inserted to the mem dependence unit.
system.cpu0.memDep0.conflictingLoads              695                       # Number of conflicting loads.
system.cpu0.memDep0.conflictingStores             548                       # Number of conflicting stores.
system.cpu0.iq.iqInstsAdded                     57428                       # Number of instructions added to the IQ (excludes non-spec)
system.cpu0.iq.iqNonSpecInstsAdded                264                       # Number of non-speculative instructions added to the IQ
system.cpu0.iq.iqInstsIssued                    52263                       # Number of instructions issued
system.cpu0.iq.iqSquashedInstsIssued               37                       # Number of squashed instructions issued
system.cpu0.iq.iqSquashedInstsExamined          12599                       # Number of squashed instructions iterated over during squash; mainly for profiling
system.cpu0.iq.iqSquashedOperandsExamined        33174                       # Number of squashed operands that are examined and possibly removed from graph
system.cpu0.iq.iqSquashedNonSpecRemoved            75                       # Number of squashed non-spec instructions that were removed
system.cpu0.iq.issued_per_cycle::samples        51548                       # Number of insts issued each cycle
system.cpu0.iq.issued_per_cycle::mean        1.013871                       # Number of insts issued each cycle
system.cpu0.iq.issued_per_cycle::stdev       1.879501                       # Number of insts issued each cycle
system.cpu0.iq.issued_per_cycle::underflows            0      0.00%      0.00% # Number of insts issued each cycle
system.cpu0.iq.issued_per_cycle::0              35229     68.34%     68.34% # Number of insts issued each cycle
system.cpu0.iq.issued_per_cycle::1               4305      8.35%     76.69% # Number of insts issued each cycle
system.cpu0.iq.issued_per_cycle::2               2590      5.02%     81.72% # Number of insts issued each cycle
system.cpu0.iq.issued_per_cycle::3               3428      6.65%     88.37% # Number of insts issued each cycle
system.cpu0.iq.issued_per_cycle::4               2388      4.63%     93.00% # Number of insts issued each cycle
system.cpu0.iq.issued_per_cycle::5               1274      2.47%     95.47% # Number of insts issued each cycle
system.cpu0.iq.issued_per_cycle::6                814      1.58%     97.05% # Number of insts issued each cycle
system.cpu0.iq.issued_per_cycle::7                472      0.92%     97.97% # Number of insts issued each cycle
system.cpu0.iq.issued_per_cycle::8               1048      2.03%    100.00% # Number of insts issued each cycle
system.cpu0.iq.issued_per_cycle::overflows            0      0.00%    100.00% # Number of insts issued each cycle
system.cpu0.iq.issued_per_cycle::min_value            0                       # Number of insts issued each cycle
system.cpu0.iq.issued_per_cycle::max_value            8                       # Number of insts issued each cycle
system.cpu0.iq.issued_per_cycle::total          51548                       # Number of insts issued each cycle
system.cpu0.iq.fu_full::No_OpClass                  0      0.00%      0.00% # attempts to use FU when none available
system.cpu0.iq.fu_full::IntAlu                     96      7.23%      7.23% # attempts to use FU when none available
system.cpu0.iq.fu_full::IntMult                   858     64.61%     71.84% # attempts to use FU when none available
system.cpu0.iq.fu_full::IntDiv                      0      0.00%     71.84% # attempts to use FU when none available
system.cpu0.iq.fu_full::FloatAdd                    0      0.00%     71.84% # attempts to use FU when none available
system.cpu0.iq.fu_full::FloatCmp                    0      0.00%     71.84% # attempts to use FU when none available
system.cpu0.iq.fu_full::FloatCvt                    0      0.00%     71.84% # attempts to use FU when none available
system.cpu0.iq.fu_full::FloatMult                   0      0.00%     71.84% # attempts to use FU when none available
system.cpu0.iq.fu_full::FloatDiv                    0      0.00%     71.84% # attempts to use FU when none available
system.cpu0.iq.fu_full::FloatSqrt                   0      0.00%     71.84% # attempts to use FU when none available
system.cpu0.iq.fu_full::SimdAdd                     0      0.00%     71.84% # attempts to use FU when none available
system.cpu0.iq.fu_full::SimdAddAcc                  0      0.00%     71.84% # attempts to use FU when none available
system.cpu0.iq.fu_full::SimdAlu                     0      0.00%     71.84% # attempts to use FU when none available
system.cpu0.iq.fu_full::SimdCmp                     0      0.00%     71.84% # attempts to use FU when none available
system.cpu0.iq.fu_full::SimdCvt                     0      0.00%     71.84% # attempts to use FU when none available
system.cpu0.iq.fu_full::SimdMisc                    0      0.00%     71.84% # attempts to use FU when none available
system.cpu0.iq.fu_full::SimdMult                    0      0.00%     71.84% # attempts to use FU when none available
system.cpu0.iq.fu_full::SimdMultAcc                 0      0.00%     71.84% # attempts to use FU when none available
system.cpu0.iq.fu_full::SimdShift                   0      0.00%     71.84% # attempts to use FU when none available
system.cpu0.iq.fu_full::SimdShiftAcc                0      0.00%     71.84% # attempts to use FU when none available
system.cpu0.iq.fu_full::SimdSqrt                    0      0.00%     71.84% # attempts to use FU when none available
system.cpu0.iq.fu_full::SimdFloatAdd                0      0.00%     71.84% # attempts to use FU when none available
system.cpu0.iq.fu_full::SimdFloatAlu                0      0.00%     71.84% # attempts to use FU when none available
system.cpu0.iq.fu_full::SimdFloatCmp                0      0.00%     71.84% # attempts to use FU when none available
system.cpu0.iq.fu_full::SimdFloatCvt                0      0.00%     71.84% # attempts to use FU when none available
system.cpu0.iq.fu_full::SimdFloatDiv                0      0.00%     71.84% # attempts to use FU when none available
system.cpu0.iq.fu_full::SimdFloatMisc               0      0.00%     71.84% # attempts to use FU when none available
system.cpu0.iq.fu_full::SimdFloatMult               0      0.00%     71.84% # attempts to use FU when none available
system.cpu0.iq.fu_full::SimdFloatMultAcc            0      0.00%     71.84% # attempts to use FU when none available
system.cpu0.iq.fu_full::SimdFloatSqrt               0      0.00%     71.84% # attempts to use FU when none available
system.cpu0.iq.fu_full::MemRead                   172     12.95%     84.79% # attempts to use FU when none available
system.cpu0.iq.fu_full::MemWrite                  202     15.21%    100.00% # attempts to use FU when none available
system.cpu0.iq.fu_full::IprAccess                   0      0.00%    100.00% # attempts to use FU when none available
system.cpu0.iq.fu_full::InstPrefetch                0      0.00%    100.00% # attempts to use FU when none available
system.cpu0.iq.FU_type_0::No_OpClass                0      0.00%      0.00% # Type of FU issued
system.cpu0.iq.FU_type_0::IntAlu                31729     60.71%     60.71% # Type of FU issued
system.cpu0.iq.FU_type_0::IntMult                3663      7.01%     67.72% # Type of FU issued
system.cpu0.iq.FU_type_0::IntDiv                    0      0.00%     67.72% # Type of FU issued
system.cpu0.iq.FU_type_0::FloatAdd                  0      0.00%     67.72% # Type of FU issued
system.cpu0.iq.FU_type_0::FloatCmp                  0      0.00%     67.72% # Type of FU issued
system.cpu0.iq.FU_type_0::FloatCvt                  0      0.00%     67.72% # Type of FU issued
system.cpu0.iq.FU_type_0::FloatMult                 0      0.00%     67.72% # Type of FU issued
system.cpu0.iq.FU_type_0::FloatDiv                  0      0.00%     67.72% # Type of FU issued
system.cpu0.iq.FU_type_0::FloatSqrt                 0      0.00%     67.72% # Type of FU issued
system.cpu0.iq.FU_type_0::SimdAdd                   0      0.00%     67.72% # Type of FU issued
system.cpu0.iq.FU_type_0::SimdAddAcc                0      0.00%     67.72% # Type of FU issued
system.cpu0.iq.FU_type_0::SimdAlu                   0      0.00%     67.72% # Type of FU issued
system.cpu0.iq.FU_type_0::SimdCmp                   0      0.00%     67.72% # Type of FU issued
system.cpu0.iq.FU_type_0::SimdCvt                   0      0.00%     67.72% # Type of FU issued
system.cpu0.iq.FU_type_0::SimdMisc                  0      0.00%     67.72% # Type of FU issued
system.cpu0.iq.FU_type_0::SimdMult                  0      0.00%     67.72% # Type of FU issued
system.cpu0.iq.FU_type_0::SimdMultAcc               0      0.00%     67.72% # Type of FU issued
system.cpu0.iq.FU_type_0::SimdShift                 0      0.00%     67.72% # Type of FU issued
system.cpu0.iq.FU_type_0::SimdShiftAcc              0      0.00%     67.72% # Type of FU issued
system.cpu0.iq.FU_type_0::SimdSqrt                  0      0.00%     67.72% # Type of FU issued
system.cpu0.iq.FU_type_0::SimdFloatAdd              0      0.00%     67.72% # Type of FU issued
system.cpu0.iq.FU_type_0::SimdFloatAlu              0      0.00%     67.72% # Type of FU issued
system.cpu0.iq.FU_type_0::SimdFloatCmp              0      0.00%     67.72% # Type of FU issued
system.cpu0.iq.FU_type_0::SimdFloatCvt              0      0.00%     67.72% # Type of FU issued
system.cpu0.iq.FU_type_0::SimdFloatDiv              0      0.00%     67.72% # Type of FU issued
system.cpu0.iq.FU_type_0::SimdFloatMisc             3      0.01%     67.72% # Type of FU issued
system.cpu0.iq.FU_type_0::SimdFloatMult             0      0.00%     67.72% # Type of FU issued
system.cpu0.iq.FU_type_0::SimdFloatMultAcc            0      0.00%     67.72% # Type of FU issued
system.cpu0.iq.FU_type_0::SimdFloatSqrt             0      0.00%     67.72% # Type of FU issued
system.cpu0.iq.FU_type_0::MemRead                9789     18.73%     86.46% # Type of FU issued
system.cpu0.iq.FU_type_0::MemWrite               7079     13.54%    100.00% # Type of FU issued
system.cpu0.iq.FU_type_0::IprAccess                 0      0.00%    100.00% # Type of FU issued
system.cpu0.iq.FU_type_0::InstPrefetch              0      0.00%    100.00% # Type of FU issued
system.cpu0.iq.FU_type_0::total                 52263                       # Type of FU issued
system.cpu0.iq.rate                          0.558616                       # Inst issue rate
system.cpu0.iq.fu_busy_cnt                       1328                       # FU busy when requested
system.cpu0.iq.fu_busy_rate                  0.025410                       # FU busy rate (busy events/executed inst)
system.cpu0.iq.int_inst_queue_reads            157377                       # Number of integer instruction queue reads
system.cpu0.iq.int_inst_queue_writes            70321                       # Number of integer instruction queue writes
system.cpu0.iq.int_inst_queue_wakeup_accesses        50024                       # Number of integer instruction queue wakeup accesses
system.cpu0.iq.fp_inst_queue_reads                 62                       # Number of floating instruction queue reads
system.cpu0.iq.fp_inst_queue_writes                28                       # Number of floating instruction queue writes
system.cpu0.iq.fp_inst_queue_wakeup_accesses           28                       # Number of floating instruction queue wakeup accesses
system.cpu0.iq.int_alu_accesses                 53557                       # Number of integer alu accesses
system.cpu0.iq.fp_alu_accesses                     34                       # Number of floating point alu accesses
system.cpu0.iew.lsq.thread0.forwLoads             117                       # Number of loads that had data forwarded from stores
system.cpu0.iew.lsq.thread0.invAddrLoads            0                       # Number of loads ignored due to an invalid address
system.cpu0.iew.lsq.thread0.squashedLoads         2840                       # Number of loads squashed
system.cpu0.iew.lsq.thread0.ignoredResponses            3                       # Number of memory responses ignored because the instruction is squashed
system.cpu0.iew.lsq.thread0.memOrderViolation           60                       # Number of memory ordering violations
system.cpu0.iew.lsq.thread0.squashedStores         1292                       # Number of stores squashed
system.cpu0.iew.lsq.thread0.invAddrSwpfs            0                       # Number of software prefetches ignored due to an invalid address
system.cpu0.iew.lsq.thread0.blockedLoads            0                       # Number of blocked loads due to partial load-store forwarding
system.cpu0.iew.lsq.thread0.rescheduledLoads          122                       # Number of loads that were rescheduled
system.cpu0.iew.lsq.thread0.cacheBlocked           60                       # Number of times an access to memory failed due to the cache being blocked
system.cpu0.iew.iewIdleCycles                       0                       # Number of cycles IEW is idle
system.cpu0.iew.iewSquashCycles                   778                       # Number of cycles IEW is squashing
system.cpu0.iew.iewBlockCycles                   1844                       # Number of cycles IEW is blocking
system.cpu0.iew.iewUnblockCycles                  501                       # Number of cycles IEW is unblocking
system.cpu0.iew.iewDispatchedInsts              57699                       # Number of instructions dispatched to IQ
system.cpu0.iew.iewDispSquashedInsts              248                       # Number of squashed instructions skipped by dispatch
system.cpu0.iew.iewDispLoadInsts                10291                       # Number of dispatched load instructions
system.cpu0.iew.iewDispStoreInsts                7836                       # Number of dispatched store instructions
system.cpu0.iew.iewDispNonSpecInsts               118                       # Number of dispatched non-speculative instructions
system.cpu0.iew.iewIQFullEvents                    24                       # Number of times the IQ has become full, causing a stall
system.cpu0.iew.iewLSQFullEvents                  472                       # Number of times the LSQ has become full, causing a stall
system.cpu0.iew.memOrderViolationEvents            60                       # Number of memory order violations
system.cpu0.iew.predictedTakenIncorrect           227                       # Number of branches that were predicted taken incorrectly
system.cpu0.iew.predictedNotTakenIncorrect          562                       # Number of branches that were predicted not taken incorrectly
system.cpu0.iew.branchMispredicts                 789                       # Number of branch mispredicts detected at execute
system.cpu0.iew.iewExecutedInsts                51229                       # Number of executed instructions
system.cpu0.iew.iewExecLoadInsts                 9392                       # Number of load instructions executed
system.cpu0.iew.iewExecSquashedInsts             1034                       # Number of squashed instructions skipped in execute
system.cpu0.iew.exec_swp                            0                       # number of swp insts executed
system.cpu0.iew.exec_nop                            7                       # number of nop insts executed
system.cpu0.iew.exec_refs                       16326                       # number of memory reference insts executed
system.cpu0.iew.exec_branches                    5998                       # Number of branches executed
system.cpu0.iew.exec_stores                      6934                       # Number of stores executed
system.cpu0.iew.exec_rate                    0.547564                       # Inst execution rate
system.cpu0.iew.wb_sent                         50293                       # cumulative count of insts sent to commit
system.cpu0.iew.wb_count                        50052                       # cumulative count of insts written-back
system.cpu0.iew.wb_producers                    31423                       # num instructions producing a value
system.cpu0.iew.wb_consumers                    60778                       # num instructions consuming a value
system.cpu0.iew.wb_penalized                        0                       # number of instrctions required to write to 'other' IQ
system.cpu0.iew.wb_rate                      0.534984                       # insts written-back per cycle
system.cpu0.iew.wb_fanout                    0.517013                       # average fanout of values written-back
system.cpu0.iew.wb_penalized_rate                   0                       # fraction of instructions written-back that wrote to 'other' IQ
system.cpu0.commit.commitSquashedInsts          12615                       # The number of squashed insts skipped by commit
system.cpu0.commit.commitNonSpecStalls            189                       # The number of times commit has been forced to stall to communicate backwards
system.cpu0.commit.branchMispredicts              719                       # The number of times a branch was mispredicted
system.cpu0.commit.committed_per_cycle::samples        49579                       # Number of insts commited each cycle
system.cpu0.commit.committed_per_cycle::mean     0.909518                       # Number of insts commited each cycle
system.cpu0.commit.committed_per_cycle::stdev     1.975199                       # Number of insts commited each cycle
system.cpu0.commit.committed_per_cycle::underflows            0      0.00%      0.00% # Number of insts commited each cycle
system.cpu0.commit.committed_per_cycle::0        36134     72.88%     72.88% # Number of insts commited each cycle
system.cpu0.commit.committed_per_cycle::1         4829      9.74%     82.62% # Number of insts commited each cycle
system.cpu0.commit.committed_per_cycle::2         2256      4.55%     87.17% # Number of insts commited each cycle
system.cpu0.commit.committed_per_cycle::3          667      1.35%     88.52% # Number of insts commited each cycle
system.cpu0.commit.committed_per_cycle::4         1310      2.64%     91.16% # Number of insts commited each cycle
system.cpu0.commit.committed_per_cycle::5         1696      3.42%     94.58% # Number of insts commited each cycle
system.cpu0.commit.committed_per_cycle::6          614      1.24%     95.82% # Number of insts commited each cycle
system.cpu0.commit.committed_per_cycle::7          237      0.48%     96.30% # Number of insts commited each cycle
system.cpu0.commit.committed_per_cycle::8         1836      3.70%    100.00% # Number of insts commited each cycle
system.cpu0.commit.committed_per_cycle::overflows            0      0.00%    100.00% # Number of insts commited each cycle
system.cpu0.commit.committed_per_cycle::min_value            0                       # Number of insts commited each cycle
system.cpu0.commit.committed_per_cycle::max_value            8                       # Number of insts commited each cycle
system.cpu0.commit.committed_per_cycle::total        49579                       # Number of insts commited each cycle
system.cpu0.commit.committedInsts               39643                       # Number of instructions committed
system.cpu0.commit.committedOps                 45093                       # Number of ops (including micro ops) committed
system.cpu0.commit.swp_count                        0                       # Number of s/w prefetches committed
system.cpu0.commit.refs                         13995                       # Number of memory references committed
system.cpu0.commit.loads                         7451                       # Number of loads committed
system.cpu0.commit.membars                        113                       # Number of memory barriers committed
system.cpu0.commit.branches                      5101                       # Number of branches committed
system.cpu0.commit.fp_insts                        28                       # Number of committed floating point instructions.
system.cpu0.commit.int_insts                    40499                       # Number of committed integer instructions.
system.cpu0.commit.function_calls                 292                       # Number of function calls committed.
system.cpu0.commit.op_class_0::No_OpClass            0      0.00%      0.00% # Class of committed instruction
system.cpu0.commit.op_class_0::IntAlu           27485     60.95%     60.95% # Class of committed instruction
system.cpu0.commit.op_class_0::IntMult           3610      8.01%     68.96% # Class of committed instruction
system.cpu0.commit.op_class_0::IntDiv               0      0.00%     68.96% # Class of committed instruction
system.cpu0.commit.op_class_0::FloatAdd             0      0.00%     68.96% # Class of committed instruction
system.cpu0.commit.op_class_0::FloatCmp             0      0.00%     68.96% # Class of committed instruction
system.cpu0.commit.op_class_0::FloatCvt             0      0.00%     68.96% # Class of committed instruction
system.cpu0.commit.op_class_0::FloatMult            0      0.00%     68.96% # Class of committed instruction
system.cpu0.commit.op_class_0::FloatDiv             0      0.00%     68.96% # Class of committed instruction
system.cpu0.commit.op_class_0::FloatSqrt            0      0.00%     68.96% # Class of committed instruction
system.cpu0.commit.op_class_0::SimdAdd              0      0.00%     68.96% # Class of committed instruction
system.cpu0.commit.op_class_0::SimdAddAcc            0      0.00%     68.96% # Class of committed instruction
system.cpu0.commit.op_class_0::SimdAlu              0      0.00%     68.96% # Class of committed instruction
system.cpu0.commit.op_class_0::SimdCmp              0      0.00%     68.96% # Class of committed instruction
system.cpu0.commit.op_class_0::SimdCvt              0      0.00%     68.96% # Class of committed instruction
system.cpu0.commit.op_class_0::SimdMisc             0      0.00%     68.96% # Class of committed instruction
system.cpu0.commit.op_class_0::SimdMult             0      0.00%     68.96% # Class of committed instruction
system.cpu0.commit.op_class_0::SimdMultAcc            0      0.00%     68.96% # Class of committed instruction
system.cpu0.commit.op_class_0::SimdShift            0      0.00%     68.96% # Class of committed instruction
system.cpu0.commit.op_class_0::SimdShiftAcc            0      0.00%     68.96% # Class of committed instruction
system.cpu0.commit.op_class_0::SimdSqrt             0      0.00%     68.96% # Class of committed instruction
system.cpu0.commit.op_class_0::SimdFloatAdd            0      0.00%     68.96% # Class of committed instruction
system.cpu0.commit.op_class_0::SimdFloatAlu            0      0.00%     68.96% # Class of committed instruction
system.cpu0.commit.op_class_0::SimdFloatCmp            0      0.00%     68.96% # Class of committed instruction
system.cpu0.commit.op_class_0::SimdFloatCvt            0      0.00%     68.96% # Class of committed instruction
system.cpu0.commit.op_class_0::SimdFloatDiv            0      0.00%     68.96% # Class of committed instruction
system.cpu0.commit.op_class_0::SimdFloatMisc            3      0.01%     68.96% # Class of committed instruction
system.cpu0.commit.op_class_0::SimdFloatMult            0      0.00%     68.96% # Class of committed instruction
system.cpu0.commit.op_class_0::SimdFloatMultAcc            0      0.00%     68.96% # Class of committed instruction
[...]
system.l2.overall_mshr_miss_latency::cpu3.inst       182500                       # number of overall MSHR miss cycles
system.l2.overall_mshr_miss_latency::cpu3.data       453750                       # number of overall MSHR miss cycles
system.l2.overall_mshr_miss_latency::total     59190000                       # number of overall MSHR miss cycles
system.l2.ReadReq_mshr_miss_rate::cpu0.inst     0.845258                       # mshr miss rate for ReadReq accesses
system.l2.ReadReq_mshr_miss_rate::cpu0.data     0.662722                       # mshr miss rate for ReadReq accesses
system.l2.ReadReq_mshr_miss_rate::cpu1.inst     0.218182                       # mshr miss rate for ReadReq accesses
system.l2.ReadReq_mshr_miss_rate::cpu1.data     0.062500                       # mshr miss rate for ReadReq accesses
system.l2.ReadReq_mshr_miss_rate::cpu2.inst     0.127273                       # mshr miss rate for ReadReq accesses
system.l2.ReadReq_mshr_miss_rate::cpu2.data     0.083333                       # mshr miss rate for ReadReq accesses
system.l2.ReadReq_mshr_miss_rate::cpu3.inst     0.057692                       # mshr miss rate for ReadReq accesses
system.l2.ReadReq_mshr_miss_rate::total      0.661191                       # mshr miss rate for ReadReq accesses
system.l2.UpgradeReq_mshr_miss_rate::cpu0.data     0.800000                       # mshr miss rate for UpgradeReq accesses
system.l2.UpgradeReq_mshr_miss_rate::total     0.800000                       # mshr miss rate for UpgradeReq accesses
system.l2.SCUpgradeReq_mshr_miss_rate::cpu0.data            1                       # mshr miss rate for SCUpgradeReq accesses
system.l2.SCUpgradeReq_mshr_miss_rate::cpu1.data            1                       # mshr miss rate for SCUpgradeReq accesses
system.l2.SCUpgradeReq_mshr_miss_rate::cpu3.data            1                       # mshr miss rate for SCUpgradeReq accesses
system.l2.SCUpgradeReq_mshr_miss_rate::total            1                       # mshr miss rate for SCUpgradeReq accesses
system.l2.ReadExReq_mshr_miss_rate::cpu0.data     0.987395                       # mshr miss rate for ReadExReq accesses
system.l2.ReadExReq_mshr_miss_rate::cpu1.data            1                       # mshr miss rate for ReadExReq accesses
system.l2.ReadExReq_mshr_miss_rate::cpu2.data     0.800000                       # mshr miss rate for ReadExReq accesses
system.l2.ReadExReq_mshr_miss_rate::cpu3.data            1                       # mshr miss rate for ReadExReq accesses
system.l2.ReadExReq_mshr_miss_rate::total     0.984064                       # mshr miss rate for ReadExReq accesses
system.l2.demand_mshr_miss_rate::cpu0.inst     0.845258                       # mshr miss rate for demand accesses
system.l2.demand_mshr_miss_rate::cpu0.data     0.852580                       # mshr miss rate for demand accesses
system.l2.demand_mshr_miss_rate::cpu1.inst     0.218182                       # mshr miss rate for demand accesses
system.l2.demand_mshr_miss_rate::cpu1.data     0.250000                       # mshr miss rate for demand accesses
system.l2.demand_mshr_miss_rate::cpu2.inst     0.127273                       # mshr miss rate for demand accesses
system.l2.demand_mshr_miss_rate::cpu2.data     0.294118                       # mshr miss rate for demand accesses
system.l2.demand_mshr_miss_rate::cpu3.inst     0.057692                       # mshr miss rate for demand accesses
system.l2.demand_mshr_miss_rate::cpu3.data     0.222222                       # mshr miss rate for demand accesses
system.l2.demand_mshr_miss_rate::total       0.727347                       # mshr miss rate for demand accesses
system.l2.overall_mshr_miss_rate::cpu0.inst     0.845258                       # mshr miss rate for overall accesses
system.l2.overall_mshr_miss_rate::cpu0.data     0.852580                       # mshr miss rate for overall accesses
system.l2.overall_mshr_miss_rate::cpu1.inst     0.218182                       # mshr miss rate for overall accesses
system.l2.overall_mshr_miss_rate::cpu1.data     0.250000                       # mshr miss rate for overall accesses
system.l2.overall_mshr_miss_rate::cpu2.inst     0.127273                       # mshr miss rate for overall accesses
system.l2.overall_mshr_miss_rate::cpu2.data     0.294118                       # mshr miss rate for overall accesses
system.l2.overall_mshr_miss_rate::cpu3.inst     0.057692                       # mshr miss rate for overall accesses
system.l2.overall_mshr_miss_rate::cpu3.data     0.222222                       # mshr miss rate for overall accesses
system.l2.overall_mshr_miss_rate::total      0.727347                       # mshr miss rate for overall accesses
system.l2.ReadReq_avg_mshr_miss_latency::cpu0.inst 64095.964567                       # average ReadReq mshr miss latency
system.l2.ReadReq_avg_mshr_miss_latency::cpu0.data 68658.482143                       # average ReadReq mshr miss latency
system.l2.ReadReq_avg_mshr_miss_latency::cpu1.inst 110708.333333                       # average ReadReq mshr miss latency
system.l2.ReadReq_avg_mshr_miss_latency::cpu1.data        60250                       # average ReadReq mshr miss latency
system.l2.ReadReq_avg_mshr_miss_latency::cpu2.inst 80892.857143                       # average ReadReq mshr miss latency
system.l2.ReadReq_avg_mshr_miss_latency::cpu2.data        63500                       # average ReadReq mshr miss latency
system.l2.ReadReq_avg_mshr_miss_latency::cpu3.inst 60833.333333                       # average ReadReq mshr miss latency
system.l2.ReadReq_avg_mshr_miss_latency::total 65918.478261                       # average ReadReq mshr miss latency
system.l2.UpgradeReq_avg_mshr_miss_latency::cpu0.data        17876                       # average UpgradeReq mshr miss latency
system.l2.UpgradeReq_avg_mshr_miss_latency::total        17876                       # average UpgradeReq mshr miss latency
system.l2.SCUpgradeReq_avg_mshr_miss_latency::cpu0.data        17501                       # average SCUpgradeReq mshr miss latency
system.l2.SCUpgradeReq_avg_mshr_miss_latency::cpu1.data        17501                       # average SCUpgradeReq mshr miss latency
system.l2.SCUpgradeReq_avg_mshr_miss_latency::cpu3.data        17501                       # average SCUpgradeReq mshr miss latency
system.l2.SCUpgradeReq_avg_mshr_miss_latency::total        17501                       # average SCUpgradeReq mshr miss latency
system.l2.ReadExReq_avg_mshr_miss_latency::cpu0.data 65491.489362                       # average ReadExReq mshr miss latency
system.l2.ReadExReq_avg_mshr_miss_latency::cpu1.data       117625                       # average ReadExReq mshr miss latency
system.l2.ReadExReq_avg_mshr_miss_latency::cpu2.data 105937.500000                       # average ReadExReq mshr miss latency
system.l2.ReadExReq_avg_mshr_miss_latency::cpu3.data 113437.500000                       # average ReadExReq mshr miss latency
system.l2.ReadExReq_avg_mshr_miss_latency::total 67767.206478                       # average ReadExReq mshr miss latency
system.l2.demand_avg_mshr_miss_latency::cpu0.inst 64095.964567                       # average overall mshr miss latency
system.l2.demand_avg_mshr_miss_latency::cpu0.data 66513.688761                       # average overall mshr miss latency
system.l2.demand_avg_mshr_miss_latency::cpu1.inst 110708.333333                       # average overall mshr miss latency
system.l2.demand_avg_mshr_miss_latency::cpu1.data       106150                       # average overall mshr miss latency
system.l2.demand_avg_mshr_miss_latency::cpu2.inst 80892.857143                       # average overall mshr miss latency
system.l2.demand_avg_mshr_miss_latency::cpu2.data        97450                       # average overall mshr miss latency
system.l2.demand_avg_mshr_miss_latency::cpu3.inst 60833.333333                       # average overall mshr miss latency
system.l2.demand_avg_mshr_miss_latency::cpu3.data 113437.500000                       # average overall mshr miss latency
system.l2.demand_avg_mshr_miss_latency::total 66430.976431                       # average overall mshr miss latency
system.l2.overall_avg_mshr_miss_latency::cpu0.inst 64095.964567                       # average overall mshr miss latency
system.l2.overall_avg_mshr_miss_latency::cpu0.data 66513.688761                       # average overall mshr miss latency
system.l2.overall_avg_mshr_miss_latency::cpu1.inst 110708.333333                       # average overall mshr miss latency
system.l2.overall_avg_mshr_miss_latency::cpu1.data       106150                       # average overall mshr miss latency
system.l2.overall_avg_mshr_miss_latency::cpu2.inst 80892.857143                       # average overall mshr miss latency
system.l2.overall_avg_mshr_miss_latency::cpu2.data        97450                       # average overall mshr miss latency
system.l2.overall_avg_mshr_miss_latency::cpu3.inst 60833.333333                       # average overall mshr miss latency
system.l2.overall_avg_mshr_miss_latency::cpu3.data 113437.500000                       # average overall mshr miss latency
system.l2.overall_avg_mshr_miss_latency::total 66430.976431                       # average overall mshr miss latency
system.l2.no_allocate_misses                        0                       # Number of misses that were no-allocate
system.membus.trans_dist::ReadReq                 643                       # Transaction distribution
system.membus.trans_dist::ReadResp                642                       # Transaction distribution
system.membus.trans_dist::UpgradeReq               13                       # Transaction distribution
system.membus.trans_dist::SCUpgradeReq              9                       # Transaction distribution
system.membus.trans_dist::UpgradeResp              12                       # Transaction distribution
system.membus.trans_dist::ReadExReq               247                       # Transaction distribution
system.membus.trans_dist::ReadExResp              247                       # Transaction distribution
system.membus.pkt_count_system.l2.mem_side::system.mem_ctrls.port         1813                       # Packet count per connected master and slave (bytes)
system.membus.pkt_count::total                   1813                       # Packet count per connected master and slave (bytes)
system.membus.pkt_size_system.l2.mem_side::system.mem_ctrls.port        56896                       # Cumulative packet size per connected master and slave (bytes)
system.membus.pkt_size::total                   56896                       # Cumulative packet size per connected master and slave (bytes)
system.membus.snoops                               10                       # Total snoops (count)
system.membus.snoop_fanout::samples               912                       # Request fanout histogram
system.membus.snoop_fanout::mean                    0                       # Request fanout histogram
system.membus.snoop_fanout::stdev                   0                       # Request fanout histogram
system.membus.snoop_fanout::underflows              0      0.00%      0.00% # Request fanout histogram
system.membus.snoop_fanout::0                     912    100.00%    100.00% # Request fanout histogram
system.membus.snoop_fanout::1                       0      0.00%    100.00% # Request fanout histogram
system.membus.snoop_fanout::overflows               0      0.00%    100.00% # Request fanout histogram
system.membus.snoop_fanout::min_value               0                       # Request fanout histogram
system.membus.snoop_fanout::max_value               0                       # Request fanout histogram
system.membus.snoop_fanout::total                 912                       # Request fanout histogram
system.membus.reqLayer0.occupancy             1106000                       # Layer occupancy (ticks)
system.membus.reqLayer0.utilization               2.4                       # Layer utilization (%)
system.membus.respLayer1.occupancy            4733488                       # Layer occupancy (ticks)
system.membus.respLayer1.utilization             10.1                       # Layer utilization (%)
system.tol2bus.trans_dist::ReadReq               1180                       # Transaction distribution
system.tol2bus.trans_dist::ReadResp              1178                       # Transaction distribution
system.tol2bus.trans_dist::Writeback               28                       # Transaction distribution
system.tol2bus.trans_dist::UpgradeReq              15                       # Transaction distribution
system.tol2bus.trans_dist::SCUpgradeReq             9                       # Transaction distribution
system.tol2bus.trans_dist::UpgradeResp             24                       # Transaction distribution
system.tol2bus.trans_dist::SCUpgradeFailReq            3                       # Transaction distribution
system.tol2bus.trans_dist::UpgradeFailResp            3                       # Transaction distribution
system.tol2bus.trans_dist::ReadExReq              284                       # Transaction distribution
system.tol2bus.trans_dist::ReadExResp             284                       # Transaction distribution
system.tol2bus.pkt_count_system.cpu0.icache.mem_side::system.l2.cpu_side         1200                       # Packet count per connected master and slave (bytes)
system.tol2bus.pkt_count_system.cpu0.dcache.mem_side::system.l2.cpu_side          868                       # Packet count per connected master and slave (bytes)
system.tol2bus.pkt_count_system.cpu1.icache.mem_side::system.l2.cpu_side          110                       # Packet count per connected master and slave (bytes)
system.tol2bus.pkt_count_system.cpu1.dcache.mem_side::system.l2.cpu_side          126                       # Packet count per connected master and slave (bytes)
system.tol2bus.pkt_count_system.cpu2.icache.mem_side::system.l2.cpu_side          110                       # Packet count per connected master and slave (bytes)
system.tol2bus.pkt_count_system.cpu2.dcache.mem_side::system.l2.cpu_side          117                       # Packet count per connected master and slave (bytes)
system.tol2bus.pkt_count_system.cpu3.icache.mem_side::system.l2.cpu_side          104                       # Packet count per connected master and slave (bytes)
system.tol2bus.pkt_count_system.cpu3.dcache.mem_side::system.l2.cpu_side          121                       # Packet count per connected master and slave (bytes)
system.tol2bus.pkt_count::total                  2756                       # Packet count per connected master and slave (bytes)
system.tol2bus.pkt_size_system.cpu0.icache.mem_side::system.l2.cpu_side        38336                       # Cumulative packet size per connected master and slave (bytes)
system.tol2bus.pkt_size_system.cpu0.dcache.mem_side::system.l2.cpu_side        27840                       # Cumulative packet size per connected master and slave (bytes)
system.tol2bus.pkt_size_system.cpu1.icache.mem_side::system.l2.cpu_side         3520                       # Cumulative packet size per connected master and slave (bytes)
system.tol2bus.pkt_size_system.cpu1.dcache.mem_side::system.l2.cpu_side         1280                       # Cumulative packet size per connected master and slave (bytes)
system.tol2bus.pkt_size_system.cpu2.icache.mem_side::system.l2.cpu_side         3520                       # Cumulative packet size per connected master and slave (bytes)
system.tol2bus.pkt_size_system.cpu2.dcache.mem_side::system.l2.cpu_side         1088                       # Cumulative packet size per connected master and slave (bytes)
system.tol2bus.pkt_size_system.cpu3.icache.mem_side::system.l2.cpu_side         3328                       # Cumulative packet size per connected master and slave (bytes)
system.tol2bus.pkt_size_system.cpu3.dcache.mem_side::system.l2.cpu_side         1152                       # Cumulative packet size per connected master and slave (bytes)
system.tol2bus.pkt_size::total                  80064                       # Cumulative packet size per connected master and slave (bytes)
system.tol2bus.snoops                             252                       # Total snoops (count)
system.tol2bus.snoop_fanout::samples             1519                       # Request fanout histogram
system.tol2bus.snoop_fanout::mean                   7                       # Request fanout histogram
system.tol2bus.snoop_fanout::stdev                  0                       # Request fanout histogram
system.tol2bus.snoop_fanout::underflows             0      0.00%      0.00% # Request fanout histogram
system.tol2bus.snoop_fanout::0                      0      0.00%      0.00% # Request fanout histogram
system.tol2bus.snoop_fanout::1                      0      0.00%      0.00% # Request fanout histogram
system.tol2bus.snoop_fanout::2                      0      0.00%      0.00% # Request fanout histogram
system.tol2bus.snoop_fanout::3                      0      0.00%      0.00% # Request fanout histogram
system.tol2bus.snoop_fanout::4                      0      0.00%      0.00% # Request fanout histogram
system.tol2bus.snoop_fanout::5                      0      0.00%      0.00% # Request fanout histogram
system.tol2bus.snoop_fanout::6                      0      0.00%      0.00% # Request fanout histogram
system.tol2bus.snoop_fanout::7                   1519    100.00%    100.00% # Request fanout histogram
system.tol2bus.snoop_fanout::8                      0      0.00%    100.00% # Request fanout histogram
system.tol2bus.snoop_fanout::overflows              0      0.00%    100.00% # Request fanout histogram
system.tol2bus.snoop_fanout::min_value              7                       # Request fanout histogram
system.tol2bus.snoop_fanout::max_value              7                       # Request fanout histogram
system.tol2bus.snoop_fanout::total               1519                       # Request fanout histogram
system.tol2bus.reqLayer0.occupancy             787500                       # Layer occupancy (ticks)
system.tol2bus.reqLayer0.utilization              1.7                       # Layer utilization (%)
system.tol2bus.respLayer0.occupancy            997738                       # Layer occupancy (ticks)
system.tol2bus.respLayer0.utilization             2.1                       # Layer utilization (%)
system.tol2bus.respLayer1.occupancy            691238                       # Layer occupancy (ticks)
system.tol2bus.respLayer1.utilization             1.5                       # Layer utilization (%)
system.tol2bus.respLayer4.occupancy             89976                       # Layer occupancy (ticks)
system.tol2bus.respLayer4.utilization             0.2                       # Layer utilization (%)
system.tol2bus.respLayer5.occupancy            156239                       # Layer occupancy (ticks)
system.tol2bus.respLayer5.utilization             0.3                       # Layer utilization (%)
system.tol2bus.respLayer8.occupancy             89227                       # Layer occupancy (ticks)
system.tol2bus.respLayer8.utilization             0.2                       # Layer utilization (%)
system.tol2bus.respLayer9.occupancy            149241                       # Layer occupancy (ticks)
system.tol2bus.respLayer9.utilization             0.3                       # Layer utilization (%)
system.tol2bus.respLayer12.occupancy            81724                       # Layer occupancy (ticks)
system.tol2bus.respLayer12.utilization            0.2                       # Layer utilization (%)
system.tol2bus.respLayer13.occupancy           149493                       # Layer occupancy (ticks)
system.tol2bus.respLayer13.utilization            0.3                       # Layer utilization (%)

---------- End Simulation Statistics   ----------
