
---------- Begin Simulation Statistics ----------
sim_seconds                                  0.000050                       # Number of seconds simulated
sim_ticks                                    49932000                       # Number of ticks simulated
final_tick                                   49932000                       # Number of ticks from beginning of simulation (restored from checkpoints and never reset)
sim_freq                                 1000000000000                       # Frequency of simulated ticks
host_inst_rate                                 123137                       # Simulator instruction rate (inst/s)
host_op_rate                                   129497                       # Simulator op (including micro ops) rate (op/s)
host_tick_rate                               33585150                       # Simulator tick rate (ticks/s)
host_mem_usage                                 682516                       # Number of bytes of host memory used
host_seconds                                     1.49                       # Real time elapsed on the host
sim_insts                                      183067                       # Number of instructions simulated
sim_ops                                        192524                       # Number of ops (including micro ops) simulated
system.voltage_domain.voltage                       1                       # Voltage in Volts
system.clk_domain.clock                          1000                       # Clock period in ticks
system.mem_ctrls.bytes_read::cpu0.inst          32384                       # Number of bytes read from this memory
system.mem_ctrls.bytes_read::cpu0.data          22848                       # Number of bytes read from this memory
system.mem_ctrls.bytes_read::cpu1.inst            640                       # Number of bytes read from this memory
system.mem_ctrls.bytes_read::cpu1.data            256                       # Number of bytes read from this memory
system.mem_ctrls.bytes_read::cpu2.inst            512                       # Number of bytes read from this memory
system.mem_ctrls.bytes_read::cpu2.data            256                       # Number of bytes read from this memory
system.mem_ctrls.bytes_read::cpu3.inst            768                       # Number of bytes read from this memory
system.mem_ctrls.bytes_read::cpu3.data            320                       # Number of bytes read from this memory
system.mem_ctrls.bytes_read::cpu4.data            320                       # Number of bytes read from this memory
system.mem_ctrls.bytes_read::cpu5.inst             64                       # Number of bytes read from this memory
system.mem_ctrls.bytes_read::cpu5.data            256                       # Number of bytes read from this memory
system.mem_ctrls.bytes_read::cpu6.data            256                       # Number of bytes read from this memory
system.mem_ctrls.bytes_read::cpu7.inst            128                       # Number of bytes read from this memory
system.mem_ctrls.bytes_read::cpu7.data            320                       # Number of bytes read from this memory
system.mem_ctrls.bytes_read::total              59328                       # Number of bytes read from this memory
system.mem_ctrls.bytes_inst_read::cpu0.inst        32384                       # Number of instructions bytes read from this memory
system.mem_ctrls.bytes_inst_read::cpu1.inst          640                       # Number of instructions bytes read from this memory
system.mem_ctrls.bytes_inst_read::cpu2.inst          512                       # Number of instructions bytes read from this memory
system.mem_ctrls.bytes_inst_read::cpu3.inst          768                       # Number of instructions bytes read from this memory
system.mem_ctrls.bytes_inst_read::cpu5.inst           64                       # Number of instructions bytes read from this memory
system.mem_ctrls.bytes_inst_read::cpu7.inst          128                       # Number of instructions bytes read from this memory
system.mem_ctrls.bytes_inst_read::total         34496                       # Number of instructions bytes read from this memory
system.mem_ctrls.num_reads::cpu0.inst             506                       # Number of read requests responded to by this memory
system.mem_ctrls.num_reads::cpu0.data             357                       # Number of read requests responded to by this memory
system.mem_ctrls.num_reads::cpu1.inst              10                       # Number of read requests responded to by this memory
system.mem_ctrls.num_reads::cpu1.data               4                       # Number of read requests responded to by this memory
system.mem_ctrls.num_reads::cpu2.inst               8                       # Number of read requests responded to by this memory
system.mem_ctrls.num_reads::cpu2.data               4                       # Number of read requests responded to by this memory
system.mem_ctrls.num_reads::cpu3.inst              12                       # Number of read requests responded to by this memory
system.mem_ctrls.num_reads::cpu3.data               5                       # Number of read requests responded to by this memory
system.mem_ctrls.num_reads::cpu4.data               5                       # Number of read requests responded to by this memory
system.mem_ctrls.num_reads::cpu5.inst               1                       # Number of read requests responded to by this memory
system.mem_ctrls.num_reads::cpu5.data               4                       # Number of read requests responded to by this memory
system.mem_ctrls.num_reads::cpu6.data               4                       # Number of read requests responded to by this memory
system.mem_ctrls.num_reads::cpu7.inst               2                       # Number of read requests responded to by this memory
system.mem_ctrls.num_reads::cpu7.data               5                       # Number of read requests responded to by this memory
system.mem_ctrls.num_reads::total                 927                       # Number of read requests responded to by this memory
system.mem_ctrls.bw_read::cpu0.inst         648562044                       # Total read bandwidth from this memory (bytes/s)
system.mem_ctrls.bw_read::cpu0.data         457582312                       # Total read bandwidth from this memory (bytes/s)
system.mem_ctrls.bw_read::cpu1.inst          12817432                       # Total read bandwidth from this memory (bytes/s)
system.mem_ctrls.bw_read::cpu1.data           5126973                       # Total read bandwidth from this memory (bytes/s)
system.mem_ctrls.bw_read::cpu2.inst          10253945                       # Total read bandwidth from this memory (bytes/s)
system.mem_ctrls.bw_read::cpu2.data           5126973                       # Total read bandwidth from this memory (bytes/s)
system.mem_ctrls.bw_read::cpu3.inst          15380918                       # Total read bandwidth from this memory (bytes/s)
system.mem_ctrls.bw_read::cpu3.data           6408716                       # Total read bandwidth from this memory (bytes/s)
system.mem_ctrls.bw_read::cpu4.data           6408716                       # Total read bandwidth from this memory (bytes/s)
system.mem_ctrls.bw_read::cpu5.inst           1281743                       # Total read bandwidth from this memory (bytes/s)
system.mem_ctrls.bw_read::cpu5.data           5126973                       # Total read bandwidth from this memory (bytes/s)
system.mem_ctrls.bw_read::cpu6.data           5126973                       # Total read bandwidth from this memory (bytes/s)
system.mem_ctrls.bw_read::cpu7.inst           2563486                       # Total read bandwidth from this memory (bytes/s)
system.mem_ctrls.bw_read::cpu7.data           6408716                       # Total read bandwidth from this memory (bytes/s)
system.mem_ctrls.bw_read::total            1188175919                       # Total read bandwidth from this memory (bytes/s)
system.mem_ctrls.bw_inst_read::cpu0.inst    648562044                       # Instruction read bandwidth from this memory (bytes/s)
system.mem_ctrls.bw_inst_read::cpu1.inst     12817432                       # Instruction read bandwidth from this memory (bytes/s)
system.mem_ctrls.bw_inst_read::cpu2.inst     10253945                       # Instruction read bandwidth from this memory (bytes/s)
system.mem_ctrls.bw_inst_read::cpu3.inst     15380918                       # Instruction read bandwidth from this memory (bytes/s)
system.mem_ctrls.bw_inst_read::cpu5.inst      1281743                       # Instruction read bandwidth from this memory (bytes/s)
system.mem_ctrls.bw_inst_read::cpu7.inst      2563486                       # Instruction read bandwidth from this memory (bytes/s)
system.mem_ctrls.bw_inst_read::total        690859569                       # Instruction read bandwidth from this memory (bytes/s)
system.mem_ctrls.bw_total::cpu0.inst        648562044                       # Total bandwidth to/from this memory (bytes/s)
system.mem_ctrls.bw_total::cpu0.data        457582312                       # Total bandwidth to/from this memory (bytes/s)
system.mem_ctrls.bw_total::cpu1.inst         12817432                       # Total bandwidth to/from this memory (bytes/s)
system.mem_ctrls.bw_total::cpu1.data          5126973                       # Total bandwidth to/from this memory (bytes/s)
system.mem_ctrls.bw_total::cpu2.inst         10253945                       # Total bandwidth to/from this memory (bytes/s)
system.mem_ctrls.bw_total::cpu2.data          5126973                       # Total bandwidth to/from this memory (bytes/s)
system.mem_ctrls.bw_total::cpu3.inst         15380918                       # Total bandwidth to/from this memory (bytes/s)
system.mem_ctrls.bw_total::cpu3.data          6408716                       # Total bandwidth to/from this memory (bytes/s)
system.mem_ctrls.bw_total::cpu4.data          6408716                       # Total bandwidth to/from this memory (bytes/s)
system.mem_ctrls.bw_total::cpu5.inst          1281743                       # Total bandwidth to/from this memory (bytes/s)
system.mem_ctrls.bw_total::cpu5.data          5126973                       # Total bandwidth to/from this memory (bytes/s)
system.mem_ctrls.bw_total::cpu6.data          5126973                       # Total bandwidth to/from this memory (bytes/s)
system.mem_ctrls.bw_total::cpu7.inst          2563486                       # Total bandwidth to/from this memory (bytes/s)
system.mem_ctrls.bw_total::cpu7.data          6408716                       # Total bandwidth to/from this memory (bytes/s)
system.mem_ctrls.bw_total::total           1188175919                       # Total bandwidth to/from this memory (bytes/s)
system.mem_ctrls.readReqs                         927                       # Number of read requests accepted
system.mem_ctrls.writeReqs                          0                       # Number of write requests accepted
system.mem_ctrls.readBursts                       927                       # Number of DRAM read bursts, including those serviced by the write queue
system.mem_ctrls.writeBursts                        0                       # Number of DRAM write bursts, including those merged in the write queue
system.mem_ctrls.bytesReadDRAM                  59328                       # Total number of bytes read from DRAM
system.mem_ctrls.bytesReadWrQ                       0                       # Total number of bytes read from write queue
system.mem_ctrls.bytesWritten                       0                       # Total number of bytes written to DRAM
system.mem_ctrls.bytesReadSys                   59328                       # Total read bytes from the system interface side
system.mem_ctrls.bytesWrittenSys                    0                       # Total written bytes from the system interface side
system.mem_ctrls.servicedByWrQ                      0                       # Number of DRAM read bursts serviced by the write queue
system.mem_ctrls.mergedWrBursts                     0                       # Number of DRAM write bursts merged with an existing one
system.mem_ctrls.neitherReadNorWriteReqs           10                       # Number of requests that are neither read nor write
system.mem_ctrls.perBankRdBursts::0               117                       # Per bank write bursts
system.mem_ctrls.perBankRdBursts::1               125                       # Per bank write bursts
system.mem_ctrls.perBankRdBursts::2               135                       # Per bank write bursts
system.mem_ctrls.perBankRdBursts::3               202                       # Per bank write bursts
system.mem_ctrls.perBankRdBursts::4                52                       # Per bank write bursts
system.mem_ctrls.perBankRdBursts::5                17                       # Per bank write bursts
system.mem_ctrls.perBankRdBursts::6                81                       # Per bank write bursts
system.mem_ctrls.perBankRdBursts::7                31                       # Per bank write bursts
system.mem_ctrls.perBankRdBursts::8                14                       # Per bank write bursts
system.mem_ctrls.perBankRdBursts::9                10                       # Per bank write bursts
system.mem_ctrls.perBankRdBursts::10                0                       # Per bank write bursts
system.mem_ctrls.perBankRdBursts::11               12                       # Per bank write bursts
system.mem_ctrls.perBankRdBursts::12                6                       # Per bank write bursts
system.mem_ctrls.perBankRdBursts::13               33                       # Per bank write bursts
system.mem_ctrls.perBankRdBursts::14               38                       # Per bank write bursts
system.mem_ctrls.perBankRdBursts::15               54                       # Per bank write bursts
system.mem_ctrls.perBankWrBursts::0                 0                       # Per bank write bursts
system.mem_ctrls.perBankWrBursts::1                 0                       # Per bank write bursts
system.mem_ctrls.perBankWrBursts::2                 0                       # Per bank write bursts
system.mem_ctrls.perBankWrBursts::3                 0                       # Per bank write bursts
system.mem_ctrls.perBankWrBursts::4                 0                       # Per bank write bursts
system.mem_ctrls.perBankWrBursts::5                 0                       # Per bank write bursts
system.mem_ctrls.perBankWrBursts::6                 0                       # Per bank write bursts
system.mem_ctrls.perBankWrBursts::7                 0                       # Per bank write bursts
system.mem_ctrls.perBankWrBursts::8                 0                       # Per bank write bursts
system.mem_ctrls.perBankWrBursts::9                 0                       # Per bank write bursts
system.mem_ctrls.perBankWrBursts::10                0                       # Per bank write bursts
system.mem_ctrls.perBankWrBursts::11                0                       # Per bank write bursts
system.mem_ctrls.perBankWrBursts::12                0                       # Per bank write bursts
system.mem_ctrls.perBankWrBursts::13                0                       # Per bank write bursts
system.mem_ctrls.perBankWrBursts::14                0                       # Per bank write bursts
system.mem_ctrls.perBankWrBursts::15                0                       # Per bank write bursts
system.mem_ctrls.numRdRetry                         0                       # Number of times read queue was full causing retry
system.mem_ctrls.numWrRetry                         0                       # Number of times write queue was full causing retry
system.mem_ctrls.totGap                      49888500                       # Total gap between requests
system.mem_ctrls.readPktSize::0                     0                       # Read request sizes (log2)
system.mem_ctrls.readPktSize::1                     0                       # Read request sizes (log2)
system.mem_ctrls.readPktSize::2                     0                       # Read request sizes (log2)
system.mem_ctrls.readPktSize::3                     0                       # Read request sizes (log2)
system.mem_ctrls.readPktSize::4                     0                       # Read request sizes (log2)
system.mem_ctrls.readPktSize::5                     0                       # Read request sizes (log2)
system.mem_ctrls.readPktSize::6                   927                       # Read request sizes (log2)
system.mem_ctrls.writePktSize::0                    0                       # Write request sizes (log2)
system.mem_ctrls.writePktSize::1                    0                       # Write request sizes (log2)
system.mem_ctrls.writePktSize::2                    0                       # Write request sizes (log2)
system.mem_ctrls.writePktSize::3                    0                       # Write request sizes (log2)
system.mem_ctrls.writePktSize::4                    0                       # Write request sizes (log2)
system.mem_ctrls.writePktSize::5                    0                       # Write request sizes (log2)
system.mem_ctrls.writePktSize::6                    0                       # Write request sizes (log2)
system.mem_ctrls.rdQLenPdf::0                     488                       # What read queue length does an incoming req see
system.mem_ctrls.rdQLenPdf::1                     311                       # What read queue length does an incoming req see
system.mem_ctrls.rdQLenPdf::2                      81                       # What read queue length does an incoming req see
system.mem_ctrls.rdQLenPdf::3                      24                       # What read queue length does an incoming req see
system.mem_ctrls.rdQLenPdf::4                      12                       # What read queue length does an incoming req see
system.mem_ctrls.rdQLenPdf::5                       4                       # What read queue length does an incoming req see
system.mem_ctrls.rdQLenPdf::6                       3                       # What read queue length does an incoming req see
system.mem_ctrls.rdQLenPdf::7                       3                       # What read queue length does an incoming req see
system.mem_ctrls.rdQLenPdf::8                       1                       # What read queue length does an incoming req see
system.mem_ctrls.rdQLenPdf::9                       0                       # What read queue length does an incoming req see
system.mem_ctrls.rdQLenPdf::10                      0                       # What read queue length does an incoming req see
system.mem_ctrls.rdQLenPdf::11                      0                       # What read queue length does an incoming req see
system.mem_ctrls.rdQLenPdf::12                      0                       # What read queue length does an incoming req see
system.mem_ctrls.rdQLenPdf::13                      0                       # What read queue length does an incoming req see
system.mem_ctrls.rdQLenPdf::14                      0                       # What read queue length does an incoming req see
system.mem_ctrls.rdQLenPdf::15                      0                       # What read queue length does an incoming req see
system.mem_ctrls.rdQLenPdf::16                      0                       # What read queue length does an incoming req see
system.mem_ctrls.rdQLenPdf::17                      0                       # What read queue length does an incoming req see
system.mem_ctrls.rdQLenPdf::18                      0                       # What read queue length does an incoming req see
system.mem_ctrls.rdQLenPdf::19                      0                       # What read queue length does an incoming req see
system.mem_ctrls.rdQLenPdf::20                      0                       # What read queue length does an incoming req see
system.mem_ctrls.rdQLenPdf::21                      0                       # What read queue length does an incoming req see
system.mem_ctrls.rdQLenPdf::22                      0                       # What read queue length does an incoming req see
system.mem_ctrls.rdQLenPdf::23                      0                       # What read queue length does an incoming req see
system.mem_ctrls.rdQLenPdf::24                      0                       # What read queue length does an incoming req see
system.mem_ctrls.rdQLenPdf::25                      0                       # What read queue length does an incoming req see
system.mem_ctrls.rdQLenPdf::26                      0                       # What read queue length does an incoming req see
system.mem_ctrls.rdQLenPdf::27                      0                       # What read queue length does an incoming req see
system.mem_ctrls.rdQLenPdf::28                      0                       # What read queue length does an incoming req see
system.mem_ctrls.rdQLenPdf::29                      0                       # What read queue length does an incoming req see
system.mem_ctrls.rdQLenPdf::30                      0                       # What read queue length does an incoming req see
system.mem_ctrls.rdQLenPdf::31                      0                       # What read queue length does an incoming req see
system.mem_ctrls.wrQLenPdf::0                       0                       # What write queue length does an incoming req see
system.mem_ctrls.wrQLenPdf::1                       0                       # What write queue length does an incoming req see
system.mem_ctrls.wrQLenPdf::2                       0                       # What write queue length does an incoming req see
system.mem_ctrls.wrQLenPdf::3                       0                       # What write queue length does an incoming req see
system.mem_ctrls.wrQLenPdf::4                       0                       # What write queue length does an incoming req see
system.mem_ctrls.wrQLenPdf::5                       0                       # What write queue length does an incoming req see
system.mem_ctrls.wrQLenPdf::6                       0                       # What write queue length does an incoming req see
system.mem_ctrls.wrQLenPdf::7                       0                       # What write queue length does an incoming req see
system.mem_ctrls.wrQLenPdf::8                       0                       # What write queue length does an incoming req see
system.mem_ctrls.wrQLenPdf::9                       0                       # What write queue length does an incoming req see
system.mem_ctrls.wrQLenPdf::10                      0                       # What write queue length does an incoming req see
system.mem_ctrls.wrQLenPdf::11                      0                       # What write queue length does an incoming req see
system.mem_ctrls.wrQLenPdf::12                      0                       # What write queue length does an incoming req see
system.mem_ctrls.wrQLenPdf::13                      0                       # What write queue length does an incoming req see
system.mem_ctrls.wrQLenPdf::14                      0                       # What write queue length does an incoming req see
system.mem_ctrls.wrQLenPdf::15                      0                       # What write queue length does an incoming req see
system.mem_ctrls.wrQLenPdf::16                      0                       # What write queue length does an incoming req see
system.mem_ctrls.wrQLenPdf::17                      0                       # What write queue length does an incoming req see
system.mem_ctrls.wrQLenPdf::18                      0                       # What write queue length does an incoming req see
system.mem_ctrls.wrQLenPdf::19                      0                       # What write queue length does an incoming req see
system.mem_ctrls.wrQLenPdf::20                      0                       # What write queue length does an incoming req see
system.mem_ctrls.wrQLenPdf::21                      0                       # What write queue length does an incoming req see
system.mem_ctrls.wrQLenPdf::22                      0                       # What write queue length does an incoming req see
system.mem_ctrls.wrQLenPdf::23                      0                       # What write queue length does an incoming req see
system.mem_ctrls.wrQLenPdf::24                      0                       # What write queue length does an incoming req see
system.mem_ctrls.wrQLenPdf::25                      0                       # What write queue length does an incoming req see
system.mem_ctrls.wrQLenPdf::26                      0                       # What write queue length does an incoming req see
system.mem_ctrls.wrQLenPdf::27                      0                       # What write queue length does an incoming req see
system.mem_ctrls.wrQLenPdf::28                      0                       # What write queue length does an incoming req see
system.mem_ctrls.wrQLenPdf::29                      0                       # What write queue length does an incoming req see
system.mem_ctrls.wrQLenPdf::30                      0                       # What write queue length does an incoming req see
system.mem_ctrls.wrQLenPdf::31                      0                       # What write queue length does an incoming req see
system.mem_ctrls.wrQLenPdf::32                      0                       # What write queue length does an incoming req see
system.mem_ctrls.wrQLenPdf::33                      0                       # What write queue length does an incoming req see
system.mem_ctrls.wrQLenPdf::34                      0                       # What write queue length does an incoming req see
system.mem_ctrls.wrQLenPdf::35                      0                       # What write queue length does an incoming req see
system.mem_ctrls.wrQLenPdf::36                      0                       # What write queue length does an incoming req see
system.mem_ctrls.wrQLenPdf::37                      0                       # What write queue length does an incoming req see
system.mem_ctrls.wrQLenPdf::38                      0                       # What write queue length does an incoming req see
system.mem_ctrls.wrQLenPdf::39                      0                       # What write queue length does an incoming req see
system.mem_ctrls.wrQLenPdf::40                      0                       # What write queue length does an incoming req see
system.mem_ctrls.wrQLenPdf::41                      0                       # What write queue length does an incoming req see
system.mem_ctrls.wrQLenPdf::42                      0                       # What write queue length does an incoming req see
system.mem_ctrls.wrQLenPdf::43                      0                       # What write queue length does an incoming req see
system.mem_ctrls.wrQLenPdf::44                      0                       # What write queue length does an incoming req see
system.mem_ctrls.wrQLenPdf::45                      0                       # What write queue length does an incoming req see
system.mem_ctrls.wrQLenPdf::46                      0                       # What write queue length does an incoming req see
system.mem_ctrls.wrQLenPdf::47                      0                       # What write queue length does an incoming req see
system.mem_ctrls.wrQLenPdf::48                      0                       # What write queue length does an incoming req see
system.mem_ctrls.wrQLenPdf::49                      0                       # What write queue length does an incoming req see
system.mem_ctrls.wrQLenPdf::50                      0                       # What write queue length does an incoming req see
system.mem_ctrls.wrQLenPdf::51                      0                       # What write queue length does an incoming req see
system.mem_ctrls.wrQLenPdf::52                      0                       # What write queue length does an incoming req see
system.mem_ctrls.wrQLenPdf::53                      0                       # What write queue length does an incoming req see
system.mem_ctrls.wrQLenPdf::54                      0                       # What write queue length does an incoming req see
system.mem_ctrls.wrQLenPdf::55                      0                       # What write queue length does an incoming req see
system.mem_ctrls.wrQLenPdf::56                      0                       # What write queue length does an incoming req see
system.mem_ctrls.wrQLenPdf::57                      0                       # What write queue length does an incoming req see
system.mem_ctrls.wrQLenPdf::58                      0                       # What write queue length does an incoming req see
system.mem_ctrls.wrQLenPdf::59                      0                       # What write queue length does an incoming req see
system.mem_ctrls.wrQLenPdf::60                      0                       # What write queue length does an incoming req see
system.mem_ctrls.wrQLenPdf::61                      0                       # What write queue length does an incoming req see
system.mem_ctrls.wrQLenPdf::62                      0                       # What write queue length does an incoming req see
system.mem_ctrls.wrQLenPdf::63                      0                       # What write queue length does an incoming req see
system.mem_ctrls.bytesPerActivate::samples          214                       # Bytes accessed per row activation
system.mem_ctrls.bytesPerActivate::mean    269.457944                       # Bytes accessed per row activation
system.mem_ctrls.bytesPerActivate::gmean   158.356038                       # Bytes accessed per row activation
system.mem_ctrls.bytesPerActivate::stdev   304.433786                       # Bytes accessed per row activation
system.mem_ctrls.bytesPerActivate::0-127           95     44.39%     44.39% # Bytes accessed per row activation
system.mem_ctrls.bytesPerActivate::128-255           43     20.09%     64.49% # Bytes accessed per row activation
system.mem_ctrls.bytesPerActivate::256-383           27     12.62%     77.10% # Bytes accessed per row activation
system.mem_ctrls.bytesPerActivate::384-511            9      4.21%     81.31% # Bytes accessed per row activation
system.mem_ctrls.bytesPerActivate::512-639            5      2.34%     83.64% # Bytes accessed per row activation
system.mem_ctrls.bytesPerActivate::640-767            9      4.21%     87.85% # Bytes accessed per row activation
system.mem_ctrls.bytesPerActivate::768-895            5      2.34%     90.19% # Bytes accessed per row activation
system.mem_ctrls.bytesPerActivate::896-1023            3      1.40%     91.59% # Bytes accessed per row activation
system.mem_ctrls.bytesPerActivate::1024-1151           18      8.41%    100.00% # Bytes accessed per row activation
system.mem_ctrls.bytesPerActivate::total          214                       # Bytes accessed per row activation
system.mem_ctrls.totQLat                     10835250                       # Total ticks spent queuing
system.mem_ctrls.totMemAccLat                28216500                       # Total ticks spent from burst creation until serviced by the DRAM
system.mem_ctrls.totBusLat                    4635000                       # Total ticks spent in databus transfers
system.mem_ctrls.avgQLat                     11688.51                       # Average queueing delay per DRAM burst
system.mem_ctrls.avgBusLat                    5000.00                       # Average bus latency per DRAM burst
system.mem_ctrls.avgMemAccLat                30438.51                       # Average memory access latency per DRAM burst
system.mem_ctrls.avgRdBW                      1188.18                       # Average DRAM read bandwidth in MiByte/s
system.mem_ctrls.avgWrBW                         0.00                       # Average achieved write bandwidth in MiByte/s
system.mem_ctrls.avgRdBWSys                   1188.18                       # Average system read bandwidth in MiByte/s
system.mem_ctrls.avgWrBWSys                      0.00                       # Average system write bandwidth in MiByte/s
system.mem_ctrls.peakBW                      12800.00                       # Theoretical peak bandwidth in MiByte/s
system.mem_ctrls.busUtil                         9.28                       # Data bus utilization in percentage
system.mem_ctrls.busUtilRead                     9.28                       # Data bus utilization in percentage for reads
system.mem_ctrls.busUtilWrite                    0.00                       # Data bus utilization in percentage for writes
system.mem_ctrls.avgRdQLen                       1.71                       # Average read queue length when enqueuing
system.mem_ctrls.avgWrQLen                       0.00                       # Average write queue length when enqueuing
system.mem_ctrls.readRowHits                      703                       # Number of row buffer hits during reads
system.mem_ctrls.writeRowHits                       0                       # Number of row buffer hits during writes
system.mem_ctrls.readRowHitRate                 75.84                       # Row buffer hit rate for reads
system.mem_ctrls.writeRowHitRate                  nan                       # Row buffer hit rate for writes
system.mem_ctrls.avgGap                      53817.15                       # Average gap between requests
system.mem_ctrls.pageHitRate                    75.84                       # Row buffer hit rate, read and write combined
system.mem_ctrls_0.actEnergy                  1398600                       # Energy for activate commands per rank (pJ)
system.mem_ctrls_0.preEnergy                   763125                       # Energy for precharge commands per rank (pJ)
system.mem_ctrls_0.readEnergy                 5834400                       # Energy for read commands per rank (pJ)
system.mem_ctrls_0.writeEnergy                      0                       # Energy for write commands per rank (pJ)
system.mem_ctrls_0.refreshEnergy              3051360                       # Energy for refresh commands per rank (pJ)
system.mem_ctrls_0.actBackEnergy             31894065                       # Energy for active background per rank (pJ)
system.mem_ctrls_0.preBackEnergy               209250                       # Energy for precharge background per rank (pJ)
system.mem_ctrls_0.totalEnergy               43150800                       # Total energy per rank (pJ)
system.mem_ctrls_0.averagePower            918.541855                       # Core power per rank (mW)
system.mem_ctrls_0.memoryStateTime::IDLE       100500                       # Time in different power states
system.mem_ctrls_0.memoryStateTime::REF       1560000                       # Time in different power states
system.mem_ctrls_0.memoryStateTime::PRE_PDN            0                       # Time in different power states
system.mem_ctrls_0.memoryStateTime::ACT      45330750                       # Time in different power states
system.mem_ctrls_0.memoryStateTime::ACT_PDN            0                       # Time in different power states
system.mem_ctrls_1.actEnergy                   166320                       # Energy for activate commands per rank (pJ)
system.mem_ctrls_1.preEnergy                    90750                       # Energy for precharge commands per rank (pJ)
system.mem_ctrls_1.readEnergy                 1006200                       # Energy for read commands per rank (pJ)
system.mem_ctrls_1.writeEnergy                      0                       # Energy for write commands per rank (pJ)
system.mem_ctrls_1.refreshEnergy              3051360                       # Energy for refresh commands per rank (pJ)
system.mem_ctrls_1.actBackEnergy             20284875                       # Energy for active background per rank (pJ)
system.mem_ctrls_1.preBackEnergy             10384500                       # Energy for precharge background per rank (pJ)
system.mem_ctrls_1.totalEnergy               34984005                       # Total energy per rank (pJ)
system.mem_ctrls_1.averagePower            744.915067                       # Core power per rank (mW)
system.mem_ctrls_1.memoryStateTime::IDLE     17389250                       # Time in different power states
system.mem_ctrls_1.memoryStateTime::REF       1560000                       # Time in different power states
system.mem_ctrls_1.memoryStateTime::PRE_PDN            0                       # Time in different power states
system.mem_ctrls_1.memoryStateTime::ACT      28249250                       # Time in different power states
system.mem_ctrls_1.memoryStateTime::ACT_PDN            0                       # Time in different power states
system.cpu0.branchPred.lookups                  10302                       # Number of BP lookups
system.cpu0.branchPred.condPredicted             7881                       # Number of conditional branches predicted
system.cpu0.branchPred.condIncorrect             1002                       # Number of conditional branches incorrect
system.cpu0.branchPred.BTBLookups                7975                       # Number of BTB lookups
system.cpu0.branchPred.BTBHits                   4423                       # Number of BTB hits
system.cpu0.branchPred.BTBCorrect                   0                       # Number of correct BTB predictions (this stat may not work properly.
system.cpu0.branchPred.BTBHitPct            55.460815                       # BTB Hit Percentage
system.cpu0.branchPred.usedRAS                    872                       # Number of times the RAS was used to get a target.
system.cpu0.branchPred.RASInCorrect                13                       # Number of incorrect RAS predictions.
system.cpu_voltage_domain.voltage                   1                       # Voltage in Volts
system.cpu_clk_domain.clock                       500                       # Clock period in ticks
system.cpu0.dstage2_mmu.stage2_tlb.walker.walks            0                       # Table walker walks requested
system.cpu0.dstage2_mmu.stage2_tlb.walker.walkRequestOrigin_Requested::Data            0                       # Table walker requests started/completed, data/inst
system.cpu0.dstage2_mmu.stage2_tlb.walker.walkRequestOrigin_Requested::Inst            0                       # Table walker requests started/completed, data/inst
system.cpu0.dstage2_mmu.stage2_tlb.walker.walkRequestOrigin_Requested::total            0                       # Table walker requests started/completed, data/inst
system.cpu0.dstage2_mmu.stage2_tlb.walker.walkRequestOrigin_Completed::Data            0                       # Table walker requests started/completed, data/inst
system.cpu0.dstage2_mmu.stage2_tlb.walker.walkRequestOrigin_Completed::Inst            0                       # Table walker requests started/completed, data/inst
system.cpu0.dstage2_mmu.stage2_tlb.walker.walkRequestOrigin_Completed::total            0                       # Table walker requests started/completed, data/inst
system.cpu0.dstage2_mmu.stage2_tlb.walker.walkRequestOrigin::total            0                       # Table walker requests started/completed, data/inst
system.cpu0.dstage2_mmu.stage2_tlb.inst_hits            0                       # ITB inst hits
system.cpu0.dstage2_mmu.stage2_tlb.inst_misses            0                       # ITB inst misses
system.cpu0.dstage2_mmu.stage2_tlb.read_hits            0                       # DTB read hits
system.cpu0.dstage2_mmu.stage2_tlb.read_misses            0                       # DTB read misses
system.cpu0.dstage2_mmu.stage2_tlb.write_hits            0                       # DTB write hits
system.cpu0.dstage2_mmu.stage2_tlb.write_misses            0                       # DTB write misses
system.cpu0.dstage2_mmu.stage2_tlb.flush_tlb            0                       # Number of times complete TLB was flushed
system.cpu0.dstage2_mmu.stage2_tlb.flush_tlb_mva            0                       # Number of times TLB was flushed by MVA
system.cpu0.dstage2_mmu.stage2_tlb.flush_tlb_mva_asid            0                       # Number of times TLB was flushed by MVA & ASID
system.cpu0.dstage2_mmu.stage2_tlb.flush_tlb_asid            0                       # Number of times TLB was flushed by ASID
system.cpu0.dstage2_mmu.stage2_tlb.flush_entries            0                       # Number of entries that have been flushed from TLB
system.cpu0.dstage2_mmu.stage2_tlb.align_faults            0                       # Number of TLB faults due to alignment restrictions
system.cpu0.dstage2_mmu.stage2_tlb.prefetch_faults            0                       # Number of TLB faults due to prefetch
system.cpu0.dstage2_mmu.stage2_tlb.domain_faults            0                       # Number of TLB faults due to domain restrictions
system.cpu0.dstage2_mmu.stage2_tlb.perms_faults            0                       # Number of TLB faults due to permissions restrictions
system.cpu0.dstage2_mmu.stage2_tlb.read_accesses            0                       # DTB read accesses
system.cpu0.dstage2_mmu.stage2_tlb.write_accesses            0                       # DTB write accesses
system.cpu0.dstage2_mmu.stage2_tlb.inst_accesses            0                       # ITB inst accesses
system.cpu0.dstage2_mmu.stage2_tlb.hits             0                       # DTB hits
system.cpu0.dstage2_mmu.stage2_tlb.misses            0                       # DTB misses
system.cpu0.dstage2_mmu.stage2_tlb.accesses            0                       # DTB accesses
system.cpu0.dtb.walker.walks                        0                       # Table walker walks requested
system.cpu0.dtb.walker.walkRequestOrigin_Requested::Data            0                       # Table walker requests started/completed, data/inst
system.cpu0.dtb.walker.walkRequestOrigin_Requested::Inst            0                       # Table walker requests started/completed, data/inst
system.cpu0.dtb.walker.walkRequestOrigin_Requested::total            0                       # Table walker requests started/completed, data/inst
system.cpu0.dtb.walker.walkRequestOrigin_Completed::Data            0                       # Table walker requests started/completed, data/inst
system.cpu0.dtb.walker.walkRequestOrigin_Completed::Inst            0                       # Table walker requests started/completed, data/inst
system.cpu0.dtb.walker.walkRequestOrigin_Completed::total            0                       # Table walker requests started/completed, data/inst
system.cpu0.dtb.walker.walkRequestOrigin::total            0                       # Table walker requests started/completed, data/inst
system.cpu0.dtb.inst_hits                           0                       # ITB inst hits
system.cpu0.dtb.inst_misses                         0                       # ITB inst misses
system.cpu0.dtb.read_hits                           0                       # DTB read hits
system.cpu0.dtb.read_misses                         0                       # DTB read misses
system.cpu0.dtb.write_hits                          0                       # DTB write hits
system.cpu0.dtb.write_misses                        0                       # DTB write misses
system.cpu0.dtb.flush_tlb                           0                       # Number of times complete TLB was flushed
system.cpu0.dtb.flush_tlb_mva                       0                       # Number of times TLB was flushed by MVA
system.cpu0.dtb.flush_tlb_mva_asid                  0                       # Number of times TLB was flushed by MVA & ASID
system.cpu0.dtb.flush_tlb_asid                      0                       # Number of times TLB was flushed by ASID
system.cpu0.dtb.flush_entries                       0                       # Number of entries that have been flushed from TLB
system.cpu0.dtb.align_faults                        0                       # Number of TLB faults due to alignment restrictions
system.cpu0.dtb.prefetch_faults                     0                       # Number of TLB faults due to prefetch
system.cpu0.dtb.domain_faults                       0                       # Number of TLB faults due to domain restrictions
system.cpu0.dtb.perms_faults                        0                       # Number of TLB faults due to permissions restrictions
system.cpu0.dtb.read_accesses                       0                       # DTB read accesses
system.cpu0.dtb.write_accesses                      0                       # DTB write accesses
system.cpu0.dtb.inst_accesses                       0                       # ITB inst accesses
system.cpu0.dtb.hits                                0                       # DTB hits
system.cpu0.dtb.misses                              0                       # DTB misses
system.cpu0.dtb.accesses                            0                       # DTB accesses
system.cpu0.istage2_mmu.stage2_tlb.walker.walks            0                       # Table walker walks requested
system.cpu0.istage2_mmu.stage2_tlb.walker.walkRequestOrigin_Requested::Data            0                       # Table walker requests started/completed, data/inst
system.cpu0.istage2_mmu.stage2_tlb.walker.walkRequestOrigin_Requested::Inst            0                       # Table walker requests started/completed, data/inst
system.cpu0.istage2_mmu.stage2_tlb.walker.walkRequestOrigin_Requested::total            0                       # Table walker requests started/completed, data/inst
system.cpu0.istage2_mmu.stage2_tlb.walker.walkRequestOrigin_Completed::Data            0                       # Table walker requests started/completed, data/inst
system.cpu0.istage2_mmu.stage2_tlb.walker.walkRequestOrigin_Completed::Inst            0                       # Table walker requests started/completed, data/inst
system.cpu0.istage2_mmu.stage2_tlb.walker.walkRequestOrigin_Completed::total            0                       # Table walker requests started/completed, data/inst
system.cpu0.istage2_mmu.stage2_tlb.walker.walkRequestOrigin::total            0                       # Table walker requests started/completed, data/inst
system.cpu0.istage2_mmu.stage2_tlb.inst_hits            0                       # ITB inst hits
system.cpu0.istage2_mmu.stage2_tlb.inst_misses            0                       # ITB inst misses
system.cpu0.istage2_mmu.stage2_tlb.read_hits            0                       # DTB read hits
system.cpu0.istage2_mmu.stage2_tlb.read_misses            0                       # DTB read misses
system.cpu0.istage2_mmu.stage2_tlb.write_hits            0                       # DTB write hits
system.cpu0.istage2_mmu.stage2_tlb.write_misses            0                       # DTB write misses
system.cpu0.istage2_mmu.stage2_tlb.flush_tlb            0                       # Number of times complete TLB was flushed
system.cpu0.istage2_mmu.stage2_tlb.flush_tlb_mva            0                       # Number of times TLB was flushed by MVA
system.cpu0.istage2_mmu.stage2_tlb.flush_tlb_mva_asid            0                       # Number of times TLB was flushed by MVA & ASID
system.cpu0.istage2_mmu.stage2_tlb.flush_tlb_asid            0                       # Number of times TLB was flushed by ASID
system.cpu0.istage2_mmu.stage2_tlb.flush_entries            0                       # Number of entries that have been flushed from TLB
system.cpu0.istage2_mmu.stage2_tlb.align_faults            0                       # Number of TLB faults due to alignment restrictions
system.cpu0.istage2_mmu.stage2_tlb.prefetch_faults            0                       # Number of TLB faults due to prefetch
system.cpu0.istage2_mmu.stage2_tlb.domain_faults            0                       # Number of TLB faults due to domain restrictions
system.cpu0.istage2_mmu.stage2_tlb.perms_faults            0                       # Number of TLB faults due to permissions restrictions
system.cpu0.istage2_mmu.stage2_tlb.read_accesses            0                       # DTB read accesses
system.cpu0.istage2_mmu.stage2_tlb.write_accesses            0                       # DTB write accesses
system.cpu0.istage2_mmu.stage2_tlb.inst_accesses            0                       # ITB inst accesses
system.cpu0.istage2_mmu.stage2_tlb.hits             0                       # DTB hits
system.cpu0.istage2_mmu.stage2_tlb.misses            0                       # DTB misses
system.cpu0.istage2_mmu.stage2_tlb.accesses            0                       # DTB accesses
system.cpu0.itb.walker.walks                        0                       # Table walker walks requested
system.cpu0.itb.walker.walkRequestOrigin_Requested::Data            0                       # Table walker requests started/completed, data/inst
system.cpu0.itb.walker.walkRequestOrigin_Requested::Inst            0                       # Table walker requests started/completed, data/inst
system.cpu0.itb.walker.walkRequestOrigin_Requested::total            0                       # Table walker requests started/completed, data/inst
system.cpu0.itb.walker.walkRequestOrigin_Completed::Data            0                       # Table walker requests started/completed, data/inst
system.cpu0.itb.walker.walkRequestOrigin_Completed::Inst            0                       # Table walker requests started/completed, data/inst
system.cpu0.itb.walker.walkRequestOrigin_Completed::total            0                       # Table walker requests started/completed, data/inst
system.cpu0.itb.walker.walkRequestOrigin::total            0                       # Table walker requests started/completed, data/inst
system.cpu0.itb.inst_hits                           0                       # ITB inst hits
system.cpu0.itb.inst_misses                         0                       # ITB inst misses
system.cpu0.itb.read_hits                           0                       # DTB read hits
system.cpu0.itb.read_misses                         0                       # DTB read misses
system.cpu0.itb.write_hits                          0                       # DTB write hits
system.cpu0.itb.write_misses                        0                       # DTB write misses
system.cpu0.itb.flush_tlb                           0                       # Number of times complete TLB was flushed
system.cpu0.itb.flush_tlb_mva                       0                       # Number of times TLB was flushed by MVA
system.cpu0.itb.flush_tlb_mva_asid                  0                       # Number of times TLB was flushed by MVA & ASID
system.cpu0.itb.flush_tlb_asid                      0                       # Number of times TLB was flushed by ASID
system.cpu0.itb.flush_entries                       0                       # Number of entries that have been flushed from TLB
system.cpu0.itb.align_faults                        0                       # Number of TLB faults due to alignment restrictions
system.cpu0.itb.prefetch_faults                     0                       # Number of TLB faults due to prefetch
system.cpu0.itb.domain_faults                       0                       # Number of TLB faults due to domain restrictions
system.cpu0.itb.perms_faults                        0                       # Number of TLB faults due to permissions restrictions
system.cpu0.itb.read_accesses                       0                       # DTB read accesses
system.cpu0.itb.write_accesses                      0                       # DTB write accesses
system.cpu0.itb.inst_accesses                       0                       # ITB inst accesses
system.cpu0.itb.hits                                0                       # DTB hits
system.cpu0.itb.misses                              0                       # DTB misses
system.cpu0.itb.accesses                            0                       # DTB accesses
system.cpu0.workload.num_syscalls                 136                       # Number of system calls
system.cpu0.numCycles                           99865                       # number of cpu cycles simulated
system.cpu0.numWorkItemsStarted                     0                       # number of work items this cpu started
system.cpu0.numWorkItemsCompleted                   0                       # number of work items this cpu completed
system.cpu0.fetch.icacheStallCycles             21546                       # Number of cycles fetch is stalled on an Icache miss
system.cpu0.fetch.Insts                         62753                       # Number of instructions fetch has processed
system.cpu0.fetch.Branches                      10302                       # Number of branches that fetch encountered
system.cpu0.fetch.predictedBranches              5295                       # Number of branches that fetch has predicted taken
system.cpu0.fetch.Cycles                        35032                       # Number of cycles fetch has run and was not squashing or blocked
system.cpu0.fetch.SquashCycles                   2117                       # Number of cycles fetch has spent squashing
system.cpu0.fetch.PendingTrapStallCycles            4                       # Number of stall cycles due to pending traps
system.cpu0.fetch.CacheLines                     7726                       # Number of cache lines fetched
system.cpu0.fetch.IcacheSquashes                  635                       # Number of outstanding Icache misses that were squashed
system.cpu0.fetch.rateDist::samples             57640                       # Number of instructions fetched each cycle (Total)
system.cpu0.fetch.rateDist::mean             1.249323                       # Number of instructions fetched each cycle (Total)
system.cpu0.fetch.rateDist::stdev            2.621836                       # Number of instructions fetched each cycle (Total)
system.cpu0.fetch.rateDist::underflows              0      0.00%      0.00% # Number of instructions fetched each cycle (Total)
system.cpu0.fetch.rateDist::0                   44851     77.81%     77.81% # Number of instructions fetched each cycle (Total)
system.cpu0.fetch.rateDist::1                    1055      1.83%     79.64% # Number of instructions fetched each cycle (Total)
system.cpu0.fetch.rateDist::2                    1339      2.32%     81.97% # Number of instructions fetched each cycle (Total)
system.cpu0.fetch.rateDist::3                     836      1.45%     83.42% # Number of instructions fetched each cycle (Total)
system.cpu0.fetch.rateDist::4                    1218      2.11%     85.53% # Number of instructions fetched each cycle (Total)
system.cpu0.fetch.rateDist::5                     677      1.17%     86.70% # Number of instructions fetched each cycle (Total)
system.cpu0.fetch.rateDist::6                    1159      2.01%     88.71% # Number of instructions fetched each cycle (Total)
system.cpu0.fetch.rateDist::7                    1481      2.57%     91.28% # Number of instructions fetched each cycle (Total)
system.cpu0.fetch.rateDist::8                    5024      8.72%    100.00% # Number of instructions fetched each cycle (Total)
system.cpu0.fetch.rateDist::overflows               0      0.00%    100.00% # Number of instructions fetched each cycle (Total)
system.cpu0.fetch.rateDist::min_value               0                       # Number of instructions fetched each cycle (Total)
system.cpu0.fetch.rateDist::max_value               8                       # Number of instructions fetched each cycle (Total)
system.cpu0.fetch.rateDist::total               57640                       # Number of instructions fetched each cycle (Total)
system.cpu0.fetch.branchRate                 0.103159                       # Number of branch fetches per cycle
system.cpu0.fetch.rate                       0.628378                       # Number of inst fetches per cycle
system.cpu0.decode.IdleCycles                   15766                       # Number of cycles decode is idle
system.cpu0.decode.BlockedCycles                31204                       # Number of cycles decode is blocked
system.cpu0.decode.RunCycles                     7420                       # Number of cycles decode is running
system.cpu0.decode.UnblockCycles                 2498                       # Number of cycles decode is unblocking
system.cpu0.decode.SquashCycles                   752                       # Number of cycles decode is squashing
system.cpu0.decode.BranchResolved                1082                       # Number of times decode resolved a branch
system.cpu0.decode.BranchMispred                  318                       # Number of times decode detected a branch misprediction
system.cpu0.decode.DecodedInsts                 62437                       # Number of instructions handled by decode
system.cpu0.decode.SquashedInsts                 1164                       # Number of squashed instructions handled by decode
system.cpu0.rename.SquashCycles                   752                       # Number of cycles rename is squashing
system.cpu0.rename.IdleCycles                   17009                       # Number of cycles rename is idle
system.cpu0.rename.BlockCycles                   3455                       # Number of cycles rename is blocking
system.cpu0.rename.serializeStallCycles         10249                       # count of cycles rename stalled for serializing inst
system.cpu0.rename.RunCycles                     8622                       # Number of cycles rename is running
system.cpu0.rename.UnblockCycles                17553                       # Number of cycles rename is unblocking
system.cpu0.rename.RenamedInsts                 60414                       # Number of instructions processed by rename
system.cpu0.rename.ROBFullEvents                    2                       # Number of times rename has blocked due to ROB full
system.cpu0.rename.IQFullEvents                  4382                       # Number of times rename has blocked due to IQ full
system.cpu0.rename.LQFullEvents                   103                       # Number of times rename has blocked due to LQ full
system.cpu0.rename.SQFullEvents                 12723                       # Number of times rename has blocked due to SQ full
system.cpu0.rename.RenamedOperands              67890                       # Number of destination operands rename has renamed
system.cpu0.rename.RenameLookups               287297                       # Number of register rename lookups that rename has made
system.cpu0.rename.int_rename_lookups           80620                       # Number of integer rename lookups
system.cpu0.rename.fp_rename_lookups               22                       # Number of floating rename lookups
system.cpu0.rename.CommittedMaps                43433                       # Number of HB maps that are committed
system.cpu0.rename.UndoneMaps                   24457                       # Number of HB maps that are undone due to squashing
system.cpu0.rename.serializingInsts               138                       # count of serializing insts renamed
system.cpu0.rename.tempSerializingInsts           138                       # count of temporary serializing insts renamed
system.cpu0.rename.skidInsts                    12347                       # count of insts added to the skid buffer
system.cpu0.memDep0.insertedLoads                9078                       # Number of loads inserted to the mem dependence unit.
system.cpu0.memDep0.insertedStores               8677                       # Number of stores inserted to the mem dependence unit.
system.cpu0.memDep0.conflictingLoads              546                       # Number of conflicting loads.
system.cpu0.memDep0.conflictingStores             427                       # Number of conflicting stores.
system.cpu0.iq.iqInstsAdded                     57398                       # Number of instructions added to the IQ (excludes non-spec)
system.cpu0.iq.iqNonSpecInstsAdded                276                       # Number of non-speculative instructions added to the IQ
system.cpu0.iq.iqInstsIssued                    42881                       # Number of instructions issued
system.cpu0.iq.iqSquashedInstsIssued             1926                       # Number of squashed instructions issued
system.cpu0.iq.iqSquashedInstsExamined          19202                       # Number of squashed instructions iterated over during squash; mainly for profiling
system.cpu0.iq.iqSquashedOperandsExamined        72068                       # Number of squashed operands that are examined and possibly removed from graph
system.cpu0.iq.iqSquashedNonSpecRemoved            77                       # Number of squashed non-spec instructions that were removed
system.cpu0.iq.issued_per_cycle::samples        57640                       # Number of insts issued each cycle
system.cpu0.iq.issued_per_cycle::mean        0.743945                       # Number of insts issued each cycle
system.cpu0.iq.issued_per_cycle::stdev       0.940130                       # Number of insts issued each cycle
system.cpu0.iq.issued_per_cycle::underflows            0      0.00%      0.00% # Number of insts issued each cycle
system.cpu0.iq.issued_per_cycle::0              34741     60.27%     60.27% # Number of insts issued each cycle
system.cpu0.iq.issued_per_cycle::1               2917      5.06%     65.33% # Number of insts issued each cycle
system.cpu0.iq.issued_per_cycle::2              19982     34.67%    100.00% # Number of insts issued each cycle
system.cpu0.iq.issued_per_cycle::overflows            0      0.00%    100.00% # Number of insts issued each cycle
system.cpu0.iq.issued_per_cycle::min_value            0                       # Number of insts issued each cycle
system.cpu0.iq.issued_per_cycle::max_value            2                       # Number of insts issued each cycle
system.cpu0.iq.issued_per_cycle::total          57640                       # Number of insts issued each cycle
system.cpu0.iq.fu_full::No_OpClass                  0                       # attempts to use FU when none available
system.cpu0.iq.fu_full::IntAlu                      0                       # attempts to use FU when none available
system.cpu0.iq.fu_full::IntMult                     0                       # attempts to use FU when none available
system.cpu0.iq.fu_full::IntDiv                      0                       # attempts to use FU when none available
system.cpu0.iq.fu_full::FloatAdd                    0                       # attempts to use FU when none available
system.cpu0.iq.fu_full::FloatCmp                    0                       # attempts to use FU when none available
system.cpu0.iq.fu_full::FloatCvt                    0                       # attempts to use FU when none available
system.cpu0.iq.fu_full::FloatMult                   0                       # attempts to use FU when none available
system.cpu0.iq.fu_full::FloatDiv                    0                       # attempts to use FU when none available
system.cpu0.iq.fu_full::FloatSqrt                   0                       # attempts to use FU when none available
system.cpu0.iq.fu_full::SimdAdd                     0                       # attempts to use FU when none available
system.cpu0.iq.fu_full::SimdAddAcc                  0                       # attempts to use FU when none available
system.cpu0.iq.fu_full::SimdAlu                     0                       # attempts to use FU when none available
system.cpu0.iq.fu_full::SimdCmp                     0                       # attempts to use FU when none available
system.cpu0.iq.fu_full::SimdCvt                     0                       # attempts to use FU when none available
system.cpu0.iq.fu_full::SimdMisc                    0                       # attempts to use FU when none available
system.cpu0.iq.fu_full::SimdMult                    0                       # attempts to use FU when none available
system.cpu0.iq.fu_full::SimdMultAcc                 0                       # attempts to use FU when none available
system.cpu0.iq.fu_full::SimdShift                   0                       # attempts to use FU when none available
system.cpu0.iq.fu_full::SimdShiftAcc                0                       # attempts to use FU when none available
system.cpu0.iq.fu_full::SimdSqrt                    0                       # attempts to use FU when none available
system.cpu0.iq.fu_full::SimdFloatAdd                0                       # attempts to use FU when none available
system.cpu0.iq.fu_full::SimdFloatAlu                0                       # attempts to use FU when none available
system.cpu0.iq.fu_full::SimdFloatCmp                0                       # attempts to use FU when none available
system.cpu0.iq.fu_full::SimdFloatCvt                0                       # attempts to use FU when none available
system.cpu0.iq.fu_full::SimdFloatDiv                0                       # attempts to use FU when none available
system.cpu0.iq.fu_full::SimdFloatMisc               0                       # attempts to use FU when none available
system.cpu0.iq.fu_full::SimdFloatMult               0                       # attempts to use FU when none available
system.cpu0.iq.fu_full::SimdFloatMultAcc            0                       # attempts to use FU when none available
system.cpu0.iq.fu_full::SimdFloatSqrt               0                       # attempts to use FU when none available
system.cpu0.iq.fu_full::MemRead                     0                       # attempts to use FU when none available
system.cpu0.iq.fu_full::MemWrite                    0                       # attempts to use FU when none available
system.cpu0.iq.fu_full::IprAccess                   0                       # attempts to use FU when none available
system.cpu0.iq.fu_full::InstPrefetch                0                       # attempts to use FU when none available
system.cpu0.iq.FU_type_0::No_OpClass                0      0.00%      0.00% # Type of FU issued
system.cpu0.iq.FU_type_0::IntAlu                26885     62.70%     62.70% # Type of FU issued
system.cpu0.iq.FU_type_0::IntMult                2114      4.93%     67.63% # Type of FU issued
system.cpu0.iq.FU_type_0::IntDiv                    0      0.00%     67.63% # Type of FU issued
system.cpu0.iq.FU_type_0::FloatAdd                  0      0.00%     67.63% # Type of FU issued
system.cpu0.iq.FU_type_0::FloatCmp                  0      0.00%     67.63% # Type of FU issued
system.cpu0.iq.FU_type_0::FloatCvt                  0      0.00%     67.63% # Type of FU issued
system.cpu0.iq.FU_type_0::FloatMult                 0      0.00%     67.63% # Type of FU issued
system.cpu0.iq.FU_type_0::FloatDiv                  0      0.00%     67.63% # Type of FU issued
system.cpu0.iq.FU_type_0::FloatSqrt                 0      0.00%     67.63% # Type of FU issued
system.cpu0.iq.FU_type_0::SimdAdd                   0      0.00%     67.63% # Type of FU issued
system.cpu0.iq.FU_type_0::SimdAddAcc                0      0.00%     67.63% # Type of FU issued
system.cpu0.iq.FU_type_0::SimdAlu                   0      0.00%     67.63% # Type of FU issued
system.cpu0.iq.FU_type_0::SimdCmp                   0      0.00%     67.63% # Type of FU issued
system.cpu0.iq.FU_type_0::SimdCvt                   0      0.00%     67.63% # Type of FU issued
system.cpu0.iq.FU_type_0::SimdMisc                  0      0.00%     67.63% # Type of FU issued
system.cpu0.iq.FU_type_0::SimdMult                  0      0.00%     67.63% # Type of FU issued
system.cpu0.iq.FU_type_0::SimdMultAcc               0      0.00%     67.63% # Type of FU issued
system.cpu0.iq.FU_type_0::SimdShift                 0      0.00%     67.63% # Type of FU issued
system.cpu0.iq.FU_type_0::SimdShiftAcc              0      0.00%     67.63% # Type of FU issued
system.cpu0.iq.FU_type_0::SimdSqrt                  0      0.00%     67.63% # Type of FU issued
system.cpu0.iq.FU_type_0::SimdFloatAdd              0      0.00%     67.63% # Type of FU issued
system.cpu0.iq.FU_type_0::SimdFloatAlu              0      0.00%     67.63% # Type of FU issued
system.cpu0.iq.FU_type_0::SimdFloatCmp              0      0.00%     67.63% # Type of FU issued
system.cpu0.iq.FU_type_0::SimdFloatCvt              0      0.00%     67.63% # Type of FU issued
system.cpu0.iq.FU_type_0::SimdFloatDiv              0      0.00%     67.63% # Type of FU issued
system.cpu0.iq.FU_type_0::SimdFloatMisc             3      0.01%     67.63% # Type of FU issued
system.cpu0.iq.FU_type_0::SimdFloatMult             0      0.00%     67.63% # Type of FU issued
system.cpu0.iq.FU_type_0::SimdFloatMultAcc            0      0.00%     67.63% # Type of FU issued
system.cpu0.iq.FU_type_0::SimdFloatSqrt             0      0.00%     67.63% # Type of FU issued
system.cpu0.iq.FU_type_0::MemRead                6862     16.00%     83.64% # Type of FU issued
system.cpu0.iq.FU_type_0::MemWrite               7017     16.36%    100.00% # Type of FU issued
system.cpu0.iq.FU_type_0::IprAccess                 0      0.00%    100.00% # Type of FU issued
system.cpu0.iq.FU_type_0::InstPrefetch              0      0.00%    100.00% # Type of FU issued
system.cpu0.iq.FU_type_0::total                 42881                       # Type of FU issued
system.cpu0.iq.rate                          0.429390                       # Inst issue rate
system.cpu0.iq.fu_busy_cnt                          0                       # FU busy when requested
system.cpu0.iq.fu_busy_rate                         0                       # FU busy rate (busy events/executed inst)
system.cpu0.iq.int_inst_queue_reads            145272                       # Number of integer instruction queue reads
system.cpu0.iq.int_inst_queue_writes            76883                       # Number of integer instruction queue writes
system.cpu0.iq.int_inst_queue_wakeup_accesses        41762                       # Number of integer instruction queue wakeup accesses
system.cpu0.iq.fp_inst_queue_reads                 56                       # Number of floating instruction queue reads
system.cpu0.iq.fp_inst_queue_writes                28                       # Number of floating instruction queue writes
system.cpu0.iq.fp_inst_queue_wakeup_accesses           28                       # Number of floating instruction queue wakeup accesses
system.cpu0.iq.int_alu_accesses                 42853                       # Number of integer alu accesses
system.cpu0.iq.fp_alu_accesses                     28                       # Number of floating point alu accesses
system.cpu0.iew.lsq.thread0.forwLoads              64                       # Number of loads that had data forwarded from stores
system.cpu0.iew.lsq.thread0.invAddrLoads            0                       # Number of loads ignored due to an invalid address
system.cpu0.iew.lsq.thread0.squashedLoads         3571                       # Number of loads squashed
system.cpu0.iew.lsq.thread0.ignoredResponses            3                       # Number of memory responses ignored because the instruction is squashed
system.cpu0.iew.lsq.thread0.memOrderViolation           35                       # Number of memory ordering violations
system.cpu0.iew.lsq.thread0.squashedStores         2015                       # Number of stores squashed
system.cpu0.iew.lsq.thread0.invAddrSwpfs            0                       # Number of software prefetches ignored due to an invalid address
system.cpu0.iew.lsq.thread0.blockedLoads            0                       # Number of blocked loads due to partial load-store forwarding
system.cpu0.iew.lsq.thread0.rescheduledLoads           31                       # Number of loads that were rescheduled
system.cpu0.iew.lsq.thread0.cacheBlocked           59                       # Number of times an access to memory failed due to the cache being blocked
system.cpu0.iew.iewIdleCycles                       0                       # Number of cycles IEW is idle
system.cpu0.iew.iewSquashCycles                   752                       # Number of cycles IEW is squashing
system.cpu0.iew.iewBlockCycles                   2734                       # Number of cycles IEW is blocking
system.cpu0.iew.iewUnblockCycles                  448                       # Number of cycles IEW is unblocking
system.cpu0.iew.iewDispatchedInsts              57681                       # Number of instructions dispatched to IQ
system.cpu0.iew.iewDispSquashedInsts              101                       # Number of squashed instructions skipped by dispatch
system.cpu0.iew.iewDispLoadInsts                 9078                       # Number of dispatched load instructions
system.cpu0.iew.iewDispStoreInsts                8677                       # Number of dispatched store instructions
system.cpu0.iew.iewDispNonSpecInsts               132                       # Number of dispatched non-speculative instructions
system.cpu0.iew.iewIQFullEvents                    16                       # Number of times the IQ has become full, causing a stall
system.cpu0.iew.iewLSQFullEvents                  429                       # Number of times the LSQ has become full, causing a stall
system.cpu0.iew.memOrderViolationEvents            35                       # Number of memory order violations
system.cpu0.iew.predictedTakenIncorrect           182                       # Number of branches that were predicted taken incorrectly
system.cpu0.iew.predictedNotTakenIncorrect          546                       # Number of branches that were predicted not taken incorrectly
system.cpu0.iew.branchMispredicts                 728                       # Number of branch mispredicts detected at execute
system.cpu0.iew.iewExecutedInsts                42389                       # Number of executed instructions
system.cpu0.iew.iewExecLoadInsts                 6652                       # Number of load instructions executed
system.cpu0.iew.iewExecSquashedInsts              492                       # Number of squashed instructions skipped in execute
system.cpu0.iew.exec_swp                            0                       # number of swp insts executed
system.cpu0.iew.exec_nop                            7                       # number of nop insts executed
system.cpu0.iew.exec_refs                       13545                       # number of memory reference insts executed
system.cpu0.iew.exec_branches                    5468                       # Number of branches executed
system.cpu0.iew.exec_stores                      6893                       # Number of stores executed
system.cpu0.iew.exec_rate                    0.424463                       # Inst execution rate
system.cpu0.iew.wb_sent                         41964                       # cumulative count of insts sent to commit
system.cpu0.iew.wb_count                        41790                       # cumulative count of insts written-back
system.cpu0.iew.wb_producers                    26198                       # num instructions producing a value
system.cpu0.iew.wb_consumers                    59451                       # num instructions consuming a value
system.cpu0.iew.wb_penalized                        0                       # number of instrctions required to write to 'other' IQ
system.cpu0.iew.wb_rate                      0.418465                       # insts written-back per cycle
system.cpu0.iew.wb_fanout                    0.440665                       # average fanout of values written-back
system.cpu0.iew.wb_penalized_rate                   0                       # fraction of instructions written-back that wrote to 'other' IQ
system.cpu0.commit.commitSquashedInsts          19212                       # The number of squashed insts skipped by commit
system.cpu0.commit.commitNonSpecStalls            199                       # The number of times commit has been forced to stall to communicate backwards
system.cpu0.commit.branchMispredicts              696                       # The number of times a branch was mispredicted
system.cpu0.commit.committed_per_cycle::samples        54764                       # Number of insts commited each cycle
system.cpu0.commit.committed_per_cycle::mean     0.702505                       # Number of insts commited each cycle
system.cpu0.commit.committed_per_cycle::stdev     1.437313                       # Number of insts commited each cycle
system.cpu0.commit.committed_per_cycle::underflows            0      0.00%      0.00% # Number of insts commited each cycle
system.cpu0.commit.committed_per_cycle::0        38232     69.81%     69.81% # Number of insts commited each cycle
system.cpu0.commit.committed_per_cycle::1         5735     10.47%     80.28% # Number of insts commited each cycle
system.cpu0.commit.committed_per_cycle::2         7191     13.13%     93.42% # Number of insts commited each cycle
system.cpu0.commit.committed_per_cycle::3         1104      2.02%     95.43% # Number of insts commited each cycle
system.cpu0.commit.committed_per_cycle::4          461      0.84%     96.27% # Number of insts commited each cycle
system.cpu0.commit.committed_per_cycle::5          549      1.00%     97.28% # Number of insts commited each cycle
system.cpu0.commit.committed_per_cycle::6          683      1.25%     98.52% # Number of insts commited each cycle
system.cpu0.commit.committed_per_cycle::7          116      0.21%     98.73% # Number of insts commited each cycle
system.cpu0.commit.committed_per_cycle::8          693      1.27%    100.00% # Number of insts commited each cycle
system.cpu0.commit.committed_per_cycle::overflows            0      0.00%    100.00% # Number of insts commited each cycle
system.cpu0.commit.committed_per_cycle::min_value            0                       # Number of insts commited each cycle
system.cpu0.commit.committed_per_cycle::max_value            8                       # Number of insts commited each cycle
system.cpu0.commit.committed_per_cycle::total        54764                       # Number of insts commited each cycle
system.cpu0.commit.committedInsts               32898                       # Number of instructions committed
system.cpu0.commit.committedOps                 38472                       # Number of ops (including micro ops) committed
system.cpu0.commit.swp_count                        0                       # Number of s/w prefetches committed
system.cpu0.commit.refs                         12169                       # Number of memory references committed
system.cpu0.commit.loads                         5507                       # Number of loads committed
system.cpu0.commit.membars                        113                       # Number of memory barriers committed
system.cpu0.commit.branches                      4818                       # Number of branches committed
system.cpu0.commit.fp_insts                        28                       # Number of committed floating point instructions.
system.cpu0.commit.int_insts                    34197                       # Number of committed integer instructions.
system.cpu0.commit.function_calls                 310                       # Number of function calls committed.
system.cpu0.commit.op_class_0::No_OpClass            0      0.00%      0.00% # Class of committed instruction
system.cpu0.commit.op_class_0::IntAlu           24222     62.96%     62.96% # Class of committed instruction
system.cpu0.commit.op_class_0::IntMult           2078      5.40%     68.36% # Class of committed instruction
system.cpu0.commit.op_class_0::IntDiv               0      0.00%     68.36% # Class of committed instruction
system.cpu0.commit.op_class_0::FloatAdd             0      0.00%     68.36% # Class of committed instruction
[...]
system.l2.ReadExReq_avg_mshr_miss_latency::cpu5.data 91562.500000                       # average ReadExReq mshr miss latency
system.l2.ReadExReq_avg_mshr_miss_latency::cpu6.data       137625                       # average ReadExReq mshr miss latency
system.l2.ReadExReq_avg_mshr_miss_latency::cpu7.data 153437.500000                       # average ReadExReq mshr miss latency
system.l2.ReadExReq_avg_mshr_miss_latency::total 72539.711191                       # average ReadExReq mshr miss latency
system.l2.demand_avg_mshr_miss_latency::cpu0.inst 65630.177515                       # average overall mshr miss latency
system.l2.demand_avg_mshr_miss_latency::cpu0.data 66541.316527                       # average overall mshr miss latency
system.l2.demand_avg_mshr_miss_latency::cpu1.inst        74550                       # average overall mshr miss latency
system.l2.demand_avg_mshr_miss_latency::cpu1.data 127562.500000                       # average overall mshr miss latency
system.l2.demand_avg_mshr_miss_latency::cpu2.inst 63781.250000                       # average overall mshr miss latency
system.l2.demand_avg_mshr_miss_latency::cpu2.data 150437.500000                       # average overall mshr miss latency
system.l2.demand_avg_mshr_miss_latency::cpu3.inst        80000                       # average overall mshr miss latency
system.l2.demand_avg_mshr_miss_latency::cpu3.data        90900                       # average overall mshr miss latency
system.l2.demand_avg_mshr_miss_latency::cpu4.data       136350                       # average overall mshr miss latency
system.l2.demand_avg_mshr_miss_latency::cpu5.inst        56250                       # average overall mshr miss latency
system.l2.demand_avg_mshr_miss_latency::cpu5.data 91562.500000                       # average overall mshr miss latency
system.l2.demand_avg_mshr_miss_latency::cpu6.data       137625                       # average overall mshr miss latency
system.l2.demand_avg_mshr_miss_latency::cpu7.inst        63125                       # average overall mshr miss latency
system.l2.demand_avg_mshr_miss_latency::cpu7.data       134800                       # average overall mshr miss latency
system.l2.demand_avg_mshr_miss_latency::total 68175.646552                       # average overall mshr miss latency
system.l2.overall_avg_mshr_miss_latency::cpu0.inst 65630.177515                       # average overall mshr miss latency
system.l2.overall_avg_mshr_miss_latency::cpu0.data 66541.316527                       # average overall mshr miss latency
system.l2.overall_avg_mshr_miss_latency::cpu1.inst        74550                       # average overall mshr miss latency
system.l2.overall_avg_mshr_miss_latency::cpu1.data 127562.500000                       # average overall mshr miss latency
system.l2.overall_avg_mshr_miss_latency::cpu2.inst 63781.250000                       # average overall mshr miss latency
system.l2.overall_avg_mshr_miss_latency::cpu2.data 150437.500000                       # average overall mshr miss latency
system.l2.overall_avg_mshr_miss_latency::cpu3.inst        80000                       # average overall mshr miss latency
system.l2.overall_avg_mshr_miss_latency::cpu3.data        90900                       # average overall mshr miss latency
system.l2.overall_avg_mshr_miss_latency::cpu4.data       136350                       # average overall mshr miss latency
system.l2.overall_avg_mshr_miss_latency::cpu5.inst        56250                       # average overall mshr miss latency
system.l2.overall_avg_mshr_miss_latency::cpu5.data 91562.500000                       # average overall mshr miss latency
system.l2.overall_avg_mshr_miss_latency::cpu6.data       137625                       # average overall mshr miss latency
system.l2.overall_avg_mshr_miss_latency::cpu7.inst        63125                       # average overall mshr miss latency
system.l2.overall_avg_mshr_miss_latency::cpu7.data       134800                       # average overall mshr miss latency
system.l2.overall_avg_mshr_miss_latency::total 68175.646552                       # average overall mshr miss latency
system.l2.no_allocate_misses                        0                       # Number of misses that were no-allocate
system.membus.trans_dist::ReadReq                 650                       # Transaction distribution
system.membus.trans_dist::ReadResp                649                       # Transaction distribution
system.membus.trans_dist::UpgradeReq               17                       # Transaction distribution
system.membus.trans_dist::SCUpgradeReq             24                       # Transaction distribution
system.membus.trans_dist::UpgradeResp              10                       # Transaction distribution
system.membus.trans_dist::ReadExReq               277                       # Transaction distribution
system.membus.trans_dist::ReadExResp              277                       # Transaction distribution
system.membus.pkt_count_system.l2.mem_side::system.mem_ctrls.port         1904                       # Packet count per connected master and slave (bytes)
system.membus.pkt_count::total                   1904                       # Packet count per connected master and slave (bytes)
system.membus.pkt_size_system.l2.mem_side::system.mem_ctrls.port        59264                       # Cumulative packet size per connected master and slave (bytes)
system.membus.pkt_size::total                   59264                       # Cumulative packet size per connected master and slave (bytes)
system.membus.snoops                               31                       # Total snoops (count)
system.membus.snoop_fanout::samples               968                       # Request fanout histogram
system.membus.snoop_fanout::mean                    0                       # Request fanout histogram
system.membus.snoop_fanout::stdev                   0                       # Request fanout histogram
system.membus.snoop_fanout::underflows              0      0.00%      0.00% # Request fanout histogram
system.membus.snoop_fanout::0                     968    100.00%    100.00% # Request fanout histogram
system.membus.snoop_fanout::1                       0      0.00%    100.00% # Request fanout histogram
system.membus.snoop_fanout::overflows               0      0.00%    100.00% # Request fanout histogram
system.membus.snoop_fanout::min_value               0                       # Request fanout histogram
system.membus.snoop_fanout::max_value               0                       # Request fanout histogram
system.membus.snoop_fanout::total                 968                       # Request fanout histogram
system.membus.reqLayer0.occupancy             1144501                       # Layer occupancy (ticks)
system.membus.reqLayer0.utilization               2.3                       # Layer utilization (%)
system.membus.respLayer1.occupancy            4930991                       # Layer occupancy (ticks)
system.membus.respLayer1.utilization              9.9                       # Layer utilization (%)
system.tol2bus.trans_dist::ReadReq               1693                       # Transaction distribution
system.tol2bus.trans_dist::ReadResp              1691                       # Transaction distribution
system.tol2bus.trans_dist::Writeback               34                       # Transaction distribution
system.tol2bus.trans_dist::UpgradeReq              19                       # Transaction distribution
system.tol2bus.trans_dist::SCUpgradeReq            24                       # Transaction distribution
system.tol2bus.trans_dist::UpgradeResp             43                       # Transaction distribution
system.tol2bus.trans_dist::SCUpgradeFailReq            2                       # Transaction distribution
system.tol2bus.trans_dist::UpgradeFailResp            2                       # Transaction distribution
system.tol2bus.trans_dist::ReadExReq              330                       # Transaction distribution
system.tol2bus.trans_dist::ReadExResp             330                       # Transaction distribution
system.tol2bus.pkt_count_system.cpu0.icache.mem_side::system.l2.cpu_side         1226                       # Packet count per connected master and slave (bytes)
system.tol2bus.pkt_count_system.cpu0.dcache.mem_side::system.l2.cpu_side          902                       # Packet count per connected master and slave (bytes)
system.tol2bus.pkt_count_system.cpu1.icache.mem_side::system.l2.cpu_side          110                       # Packet count per connected master and slave (bytes)
system.tol2bus.pkt_count_system.cpu1.dcache.mem_side::system.l2.cpu_side          110                       # Packet count per connected master and slave (bytes)
system.tol2bus.pkt_count_system.cpu2.icache.mem_side::system.l2.cpu_side          112                       # Packet count per connected master and slave (bytes)
system.tol2bus.pkt_count_system.cpu2.dcache.mem_side::system.l2.cpu_side          107                       # Packet count per connected master and slave (bytes)
system.tol2bus.pkt_count_system.cpu3.icache.mem_side::system.l2.cpu_side          114                       # Packet count per connected master and slave (bytes)
system.tol2bus.pkt_count_system.cpu3.dcache.mem_side::system.l2.cpu_side          106                       # Packet count per connected master and slave (bytes)
system.tol2bus.pkt_count_system.cpu4.icache.mem_side::system.l2.cpu_side          114                       # Packet count per connected master and slave (bytes)
system.tol2bus.pkt_count_system.cpu4.dcache.mem_side::system.l2.cpu_side          105                       # Packet count per connected master and slave (bytes)
system.tol2bus.pkt_count_system.cpu5.icache.mem_side::system.l2.cpu_side          116                       # Packet count per connected master and slave (bytes)
system.tol2bus.pkt_count_system.cpu5.dcache.mem_side::system.l2.cpu_side          104                       # Packet count per connected master and slave (bytes)
system.tol2bus.pkt_count_system.cpu6.icache.mem_side::system.l2.cpu_side          114                       # Packet count per connected master and slave (bytes)
system.tol2bus.pkt_count_system.cpu6.dcache.mem_side::system.l2.cpu_side          107                       # Packet count per connected master and slave (bytes)
system.tol2bus.pkt_count_system.cpu7.icache.mem_side::system.l2.cpu_side          102                       # Packet count per connected master and slave (bytes)
system.tol2bus.pkt_count_system.cpu7.dcache.mem_side::system.l2.cpu_side          105                       # Packet count per connected master and slave (bytes)
system.tol2bus.pkt_count::total                  3654                       # Packet count per connected master and slave (bytes)
system.tol2bus.pkt_size_system.cpu0.icache.mem_side::system.l2.cpu_side        39168                       # Cumulative packet size per connected master and slave (bytes)
system.tol2bus.pkt_size_system.cpu0.dcache.mem_side::system.l2.cpu_side        28928                       # Cumulative packet size per connected master and slave (bytes)
system.tol2bus.pkt_size_system.cpu1.icache.mem_side::system.l2.cpu_side         3520                       # Cumulative packet size per connected master and slave (bytes)
system.tol2bus.pkt_size_system.cpu1.dcache.mem_side::system.l2.cpu_side         1088                       # Cumulative packet size per connected master and slave (bytes)
system.tol2bus.pkt_size_system.cpu2.icache.mem_side::system.l2.cpu_side         3584                       # Cumulative packet size per connected master and slave (bytes)
system.tol2bus.pkt_size_system.cpu2.dcache.mem_side::system.l2.cpu_side         1088                       # Cumulative packet size per connected master and slave (bytes)
system.tol2bus.pkt_size_system.cpu3.icache.mem_side::system.l2.cpu_side         3648                       # Cumulative packet size per connected master and slave (bytes)
system.tol2bus.pkt_size_system.cpu3.dcache.mem_side::system.l2.cpu_side         1024                       # Cumulative packet size per connected master and slave (bytes)
system.tol2bus.pkt_size_system.cpu4.icache.mem_side::system.l2.cpu_side         3648                       # Cumulative packet size per connected master and slave (bytes)
system.tol2bus.pkt_size_system.cpu4.dcache.mem_side::system.l2.cpu_side         1088                       # Cumulative packet size per connected master and slave (bytes)
system.tol2bus.pkt_size_system.cpu5.icache.mem_side::system.l2.cpu_side         3712                       # Cumulative packet size per connected master and slave (bytes)
system.tol2bus.pkt_size_system.cpu5.dcache.mem_side::system.l2.cpu_side         1088                       # Cumulative packet size per connected master and slave (bytes)
system.tol2bus.pkt_size_system.cpu6.icache.mem_side::system.l2.cpu_side         3648                       # Cumulative packet size per connected master and slave (bytes)
system.tol2bus.pkt_size_system.cpu6.dcache.mem_side::system.l2.cpu_side         1152                       # Cumulative packet size per connected master and slave (bytes)
system.tol2bus.pkt_size_system.cpu7.icache.mem_side::system.l2.cpu_side         3264                       # Cumulative packet size per connected master and slave (bytes)
system.tol2bus.pkt_size_system.cpu7.dcache.mem_side::system.l2.cpu_side         1088                       # Cumulative packet size per connected master and slave (bytes)
system.tol2bus.pkt_size::total                 100736                       # Cumulative packet size per connected master and slave (bytes)
system.tol2bus.snoops                             514                       # Total snoops (count)
system.tol2bus.snoop_fanout::samples             2103                       # Request fanout histogram
system.tol2bus.snoop_fanout::mean                  15                       # Request fanout histogram
system.tol2bus.snoop_fanout::stdev                  0                       # Request fanout histogram
system.tol2bus.snoop_fanout::underflows             0      0.00%      0.00% # Request fanout histogram
system.tol2bus.snoop_fanout::0                      0      0.00%      0.00% # Request fanout histogram
system.tol2bus.snoop_fanout::1                      0      0.00%      0.00% # Request fanout histogram
system.tol2bus.snoop_fanout::2                      0      0.00%      0.00% # Request fanout histogram
system.tol2bus.snoop_fanout::3                      0      0.00%      0.00% # Request fanout histogram
system.tol2bus.snoop_fanout::4                      0      0.00%      0.00% # Request fanout histogram
system.tol2bus.snoop_fanout::5                      0      0.00%      0.00% # Request fanout histogram
system.tol2bus.snoop_fanout::6                      0      0.00%      0.00% # Request fanout histogram
system.tol2bus.snoop_fanout::7                      0      0.00%      0.00% # Request fanout histogram
system.tol2bus.snoop_fanout::8                      0      0.00%      0.00% # Request fanout histogram
system.tol2bus.snoop_fanout::9                      0      0.00%      0.00% # Request fanout histogram
system.tol2bus.snoop_fanout::10                     0      0.00%      0.00% # Request fanout histogram
system.tol2bus.snoop_fanout::11                     0      0.00%      0.00% # Request fanout histogram
system.tol2bus.snoop_fanout::12                     0      0.00%      0.00% # Request fanout histogram
system.tol2bus.snoop_fanout::13                     0      0.00%      0.00% # Request fanout histogram
system.tol2bus.snoop_fanout::14                     0      0.00%      0.00% # Request fanout histogram
system.tol2bus.snoop_fanout::15                  2103    100.00%    100.00% # Request fanout histogram
system.tol2bus.snoop_fanout::16                     0      0.00%    100.00% # Request fanout histogram
system.tol2bus.snoop_fanout::overflows              0      0.00%    100.00% # Request fanout histogram
system.tol2bus.snoop_fanout::min_value             15                       # Request fanout histogram
system.tol2bus.snoop_fanout::max_value             15                       # Request fanout histogram
system.tol2bus.snoop_fanout::total               2103                       # Request fanout histogram
system.tol2bus.reqLayer0.occupancy            1086248                       # Layer occupancy (ticks)
system.tol2bus.reqLayer0.utilization              2.2                       # Layer utilization (%)
system.tol2bus.respLayer0.occupancy           1014732                       # Layer occupancy (ticks)
system.tol2bus.respLayer0.utilization             2.0                       # Layer utilization (%)
system.tol2bus.respLayer1.occupancy            720233                       # Layer occupancy (ticks)
system.tol2bus.respLayer1.utilization             1.4                       # Layer utilization (%)
system.tol2bus.respLayer4.occupancy             91706                       # Layer occupancy (ticks)
system.tol2bus.respLayer4.utilization             0.2                       # Layer utilization (%)
system.tol2bus.respLayer5.occupancy            140737                       # Layer occupancy (ticks)
system.tol2bus.respLayer5.utilization             0.3                       # Layer utilization (%)
system.tol2bus.respLayer8.occupancy             92207                       # Layer occupancy (ticks)
system.tol2bus.respLayer8.utilization             0.2                       # Layer utilization (%)
system.tol2bus.respLayer9.occupancy            134739                       # Layer occupancy (ticks)
system.tol2bus.respLayer9.utilization             0.3                       # Layer utilization (%)
system.tol2bus.respLayer12.occupancy            90466                       # Layer occupancy (ticks)
system.tol2bus.respLayer12.utilization            0.2                       # Layer utilization (%)
system.tol2bus.respLayer13.occupancy           135235                       # Layer occupancy (ticks)
system.tol2bus.respLayer13.utilization            0.3                       # Layer utilization (%)
system.tol2bus.respLayer16.occupancy            90200                       # Layer occupancy (ticks)
system.tol2bus.respLayer16.utilization            0.2                       # Layer utilization (%)
system.tol2bus.respLayer17.occupancy           132480                       # Layer occupancy (ticks)
system.tol2bus.respLayer17.utilization            0.3                       # Layer utilization (%)
system.tol2bus.respLayer20.occupancy            90708                       # Layer occupancy (ticks)
system.tol2bus.respLayer20.utilization            0.2                       # Layer utilization (%)
system.tol2bus.respLayer21.occupancy           127998                       # Layer occupancy (ticks)
system.tol2bus.respLayer21.utilization            0.3                       # Layer utilization (%)
system.tol2bus.respLayer24.occupancy            89706                       # Layer occupancy (ticks)
system.tol2bus.respLayer24.utilization            0.2                       # Layer utilization (%)
system.tol2bus.respLayer25.occupancy           132727                       # Layer occupancy (ticks)
system.tol2bus.respLayer25.utilization            0.3                       # Layer utilization (%)
system.tol2bus.respLayer28.occupancy            78467                       # Layer occupancy (ticks)
system.tol2bus.respLayer28.utilization            0.2                       # Layer utilization (%)
system.tol2bus.respLayer29.occupancy           126994                       # Layer occupancy (ticks)
system.tol2bus.respLayer29.utilization            0.3                       # Layer utilization (%)

---------- End Simulation Statistics   ----------
