
---------- Begin Simulation Statistics ----------
sim_seconds                                  0.000051                       # Number of seconds simulated
sim_ticks                                    51230000                       # Number of ticks simulated
final_tick                                   51230000                       # Number of ticks from beginning of simulation (restored from checkpoints and never reset)
sim_freq                                 1000000000000                       # Frequency of simulated ticks
host_inst_rate                                 137902                       # Simulator instruction rate (inst/s)
host_op_rate                                   144215                       # Simulator op (including micro ops) rate (op/s)
host_tick_rate                               20518345                       # Simulator tick rate (ticks/s)
host_mem_usage                                 736536                       # Number of bytes of host memory used
host_seconds                                     2.50                       # Real time elapsed on the host
sim_insts                                      344307                       # Number of instructions simulated
sim_ops                                        360072                       # Number of ops (including micro ops) simulated
system.voltage_domain.voltage                       1                       # Voltage in Volts
system.clk_domain.clock                          1000                       # Clock period in ticks
system.mem_ctrls.bytes_read::cpu00.inst         31616                       # Number of bytes read from this memory
system.mem_ctrls.bytes_read::cpu00.data         24896                       # Number of bytes read from this memory
system.mem_ctrls.bytes_read::cpu01.inst          1280                       # Number of bytes read from this memory
system.mem_ctrls.bytes_read::cpu01.data           384                       # Number of bytes read from this memory
system.mem_ctrls.bytes_read::cpu02.inst           256                       # Number of bytes read from this memory
system.mem_ctrls.bytes_read::cpu02.data           256                       # Number of bytes read from this memory
system.mem_ctrls.bytes_read::cpu03.inst           128                       # Number of bytes read from this memory
system.mem_ctrls.bytes_read::cpu03.data           256                       # Number of bytes read from this memory
system.mem_ctrls.bytes_read::cpu04.inst            64                       # Number of bytes read from this memory
system.mem_ctrls.bytes_read::cpu04.data           256                       # Number of bytes read from this memory
system.mem_ctrls.bytes_read::cpu05.inst            64                       # Number of bytes read from this memory
system.mem_ctrls.bytes_read::cpu05.data           256                       # Number of bytes read from this memory
system.mem_ctrls.bytes_read::cpu06.data           256                       # Number of bytes read from this memory
system.mem_ctrls.bytes_read::cpu07.data           256                       # Number of bytes read from this memory
system.mem_ctrls.bytes_read::cpu08.inst           448                       # Number of bytes read from this memory
system.mem_ctrls.bytes_read::cpu08.data           256                       # Number of bytes read from this memory
system.mem_ctrls.bytes_read::cpu09.data           256                       # Number of bytes read from this memory
system.mem_ctrls.bytes_read::cpu10.data           256                       # Number of bytes read from this memory
system.mem_ctrls.bytes_read::cpu11.inst           256                       # Number of bytes read from this memory
system.mem_ctrls.bytes_read::cpu11.data           256                       # Number of bytes read from this memory
system.mem_ctrls.bytes_read::cpu12.inst            64                       # Number of bytes read from this memory
system.mem_ctrls.bytes_read::cpu12.data           320                       # Number of bytes read from this memory
system.mem_ctrls.bytes_read::cpu13.data           256                       # Number of bytes read from this memory
system.mem_ctrls.bytes_read::cpu14.data           256                       # Number of bytes read from this memory
system.mem_ctrls.bytes_read::cpu15.inst            64                       # Number of bytes read from this memory
system.mem_ctrls.bytes_read::cpu15.data           256                       # Number of bytes read from this memory
system.mem_ctrls.bytes_read::total              63168                       # Number of bytes read from this memory
system.mem_ctrls.bytes_inst_read::cpu00.inst        31616                       # Number of instructions bytes read from this memory
system.mem_ctrls.bytes_inst_read::cpu01.inst         1280                       # Number of instructions bytes read from this memory
system.mem_ctrls.bytes_inst_read::cpu02.inst          256                       # Number of instructions bytes read from this memory
system.mem_ctrls.bytes_inst_read::cpu03.inst          128                       # Number of instructions bytes read from this memory
system.mem_ctrls.bytes_inst_read::cpu04.inst           64                       # Number of instructions bytes read from this memory
system.mem_ctrls.bytes_inst_read::cpu05.inst           64                       # Number of instructions bytes read from this memory
system.mem_ctrls.bytes_inst_read::cpu08.inst          448                       # Number of instructions bytes read from this memory
system.mem_ctrls.bytes_inst_read::cpu11.inst          256                       # Number of instructions bytes read from this memory
system.mem_ctrls.bytes_inst_read::cpu12.inst           64                       # Number of instructions bytes read from this memory
system.mem_ctrls.bytes_inst_read::cpu15.inst           64                       # Number of instructions bytes read from this memory
system.mem_ctrls.bytes_inst_read::total         34240                       # Number of instructions bytes read from this memory
system.mem_ctrls.num_reads::cpu00.inst            494                       # Number of read requests responded to by this memory
system.mem_ctrls.num_reads::cpu00.data            389                       # Number of read requests responded to by this memory
system.mem_ctrls.num_reads::cpu01.inst             20                       # Number of read requests responded to by this memory
system.mem_ctrls.num_reads::cpu01.data              6                       # Number of read requests responded to by this memory
system.mem_ctrls.num_reads::cpu02.inst              4                       # Number of read requests responded to by this memory
system.mem_ctrls.num_reads::cpu02.data              4                       # Number of read requests responded to by this memory
system.mem_ctrls.num_reads::cpu03.inst              2                       # Number of read requests responded to by this memory
system.mem_ctrls.num_reads::cpu03.data              4                       # Number of read requests responded to by this memory
system.mem_ctrls.num_reads::cpu04.inst              1                       # Number of read requests responded to by this memory
system.mem_ctrls.num_reads::cpu04.data              4                       # Number of read requests responded to by this memory
system.mem_ctrls.num_reads::cpu05.inst              1                       # Number of read requests responded to by this memory
system.mem_ctrls.num_reads::cpu05.data              4                       # Number of read requests responded to by this memory
system.mem_ctrls.num_reads::cpu06.data              4                       # Number of read requests responded to by this memory
system.mem_ctrls.num_reads::cpu07.data              4                       # Number of read requests responded to by this memory
system.mem_ctrls.num_reads::cpu08.inst              7                       # Number of read requests responded to by this memory
system.mem_ctrls.num_reads::cpu08.data              4                       # Number of read requests responded to by this memory
system.mem_ctrls.num_reads::cpu09.data              4                       # Number of read requests responded to by this memory
system.mem_ctrls.num_reads::cpu10.data              4                       # Number of read requests responded to by this memory
system.mem_ctrls.num_reads::cpu11.inst              4                       # Number of read requests responded to by this memory
system.mem_ctrls.num_reads::cpu11.data              4                       # Number of read requests responded to by this memory
system.mem_ctrls.num_reads::cpu12.inst              1                       # Number of read requests responded to by this memory
system.mem_ctrls.num_reads::cpu12.data              5                       # Number of read requests responded to by this memory
system.mem_ctrls.num_reads::cpu13.data              4                       # Number of read requests responded to by this memory
system.mem_ctrls.num_reads::cpu14.data              4                       # Number of read requests responded to by this memory
system.mem_ctrls.num_reads::cpu15.inst              1                       # Number of read requests responded to by this memory
system.mem_ctrls.num_reads::cpu15.data              4                       # Number of read requests responded to by this memory
system.mem_ctrls.num_reads::total                 987                       # Number of read requests responded to by this memory
system.mem_ctrls.bw_read::cpu00.inst        617138395                       # Total read bandwidth from this memory (bytes/s)
system.mem_ctrls.bw_read::cpu00.data        485965255                       # Total read bandwidth from this memory (bytes/s)
system.mem_ctrls.bw_read::cpu01.inst         24985360                       # Total read bandwidth from this memory (bytes/s)
system.mem_ctrls.bw_read::cpu01.data          7495608                       # Total read bandwidth from this memory (bytes/s)
system.mem_ctrls.bw_read::cpu02.inst          4997072                       # Total read bandwidth from this memory (bytes/s)
system.mem_ctrls.bw_read::cpu02.data          4997072                       # Total read bandwidth from this memory (bytes/s)
system.mem_ctrls.bw_read::cpu03.inst          2498536                       # Total read bandwidth from this memory (bytes/s)
system.mem_ctrls.bw_read::cpu03.data          4997072                       # Total read bandwidth from this memory (bytes/s)
system.mem_ctrls.bw_read::cpu04.inst          1249268                       # Total read bandwidth from this memory (bytes/s)
system.mem_ctrls.bw_read::cpu04.data          4997072                       # Total read bandwidth from this memory (bytes/s)
system.mem_ctrls.bw_read::cpu05.inst          1249268                       # Total read bandwidth from this memory (bytes/s)
system.mem_ctrls.bw_read::cpu05.data          4997072                       # Total read bandwidth from this memory (bytes/s)
system.mem_ctrls.bw_read::cpu06.data          4997072                       # Total read bandwidth from this memory (bytes/s)
system.mem_ctrls.bw_read::cpu07.data          4997072                       # Total read bandwidth from this memory (bytes/s)
system.mem_ctrls.bw_read::cpu08.inst          8744876                       # Total read bandwidth from this memory (bytes/s)
system.mem_ctrls.bw_read::cpu08.data          4997072                       # Total read bandwidth from this memory (bytes/s)
system.mem_ctrls.bw_read::cpu09.data          4997072                       # Total read bandwidth from this memory (bytes/s)
system.mem_ctrls.bw_read::cpu10.data          4997072                       # Total read bandwidth from this memory (bytes/s)
system.mem_ctrls.bw_read::cpu11.inst          4997072                       # Total read bandwidth from this memory (bytes/s)
system.mem_ctrls.bw_read::cpu11.data          4997072                       # Total read bandwidth from this memory (bytes/s)
system.mem_ctrls.bw_read::cpu12.inst          1249268                       # Total read bandwidth from this memory (bytes/s)
system.mem_ctrls.bw_read::cpu12.data          6246340                       # Total read bandwidth from this memory (bytes/s)
system.mem_ctrls.bw_read::cpu13.data          4997072                       # Total read bandwidth from this memory (bytes/s)
system.mem_ctrls.bw_read::cpu14.data          4997072                       # Total read bandwidth from this memory (bytes/s)
system.mem_ctrls.bw_read::cpu15.inst          1249268                       # Total read bandwidth from this memory (bytes/s)
system.mem_ctrls.bw_read::cpu15.data          4997072                       # Total read bandwidth from this memory (bytes/s)
system.mem_ctrls.bw_read::total            1233027523                       # Total read bandwidth from this memory (bytes/s)
system.mem_ctrls.bw_inst_read::cpu00.inst    617138395                       # Instruction read bandwidth from this memory (bytes/s)
system.mem_ctrls.bw_inst_read::cpu01.inst     24985360                       # Instruction read bandwidth from this memory (bytes/s)
system.mem_ctrls.bw_inst_read::cpu02.inst      4997072                       # Instruction read bandwidth from this memory (bytes/s)
system.mem_ctrls.bw_inst_read::cpu03.inst      2498536                       # Instruction read bandwidth from this memory (bytes/s)
system.mem_ctrls.bw_inst_read::cpu04.inst      1249268                       # Instruction read bandwidth from this memory (bytes/s)
system.mem_ctrls.bw_inst_read::cpu05.inst      1249268                       # Instruction read bandwidth from this memory (bytes/s)
system.mem_ctrls.bw_inst_read::cpu08.inst      8744876                       # Instruction read bandwidth from this memory (bytes/s)
system.mem_ctrls.bw_inst_read::cpu11.inst      4997072                       # Instruction read bandwidth from this memory (bytes/s)
system.mem_ctrls.bw_inst_read::cpu12.inst      1249268                       # Instruction read bandwidth from this memory (bytes/s)
system.mem_ctrls.bw_inst_read::cpu15.inst      1249268                       # Instruction read bandwidth from this memory (bytes/s)
system.mem_ctrls.bw_inst_read::total        668358384                       # Instruction read bandwidth from this memory (bytes/s)
system.mem_ctrls.bw_total::cpu00.inst       617138395                       # Total bandwidth to/from this memory (bytes/s)
system.mem_ctrls.bw_total::cpu00.data       485965255                       # Total bandwidth to/from this memory (bytes/s)
system.mem_ctrls.bw_total::cpu01.inst        24985360                       # Total bandwidth to/from this memory (bytes/s)
system.mem_ctrls.bw_total::cpu01.data         7495608                       # Total bandwidth to/from this memory (bytes/s)
system.mem_ctrls.bw_total::cpu02.inst         4997072                       # Total bandwidth to/from this memory (bytes/s)
system.mem_ctrls.bw_total::cpu02.data         4997072                       # Total bandwidth to/from this memory (bytes/s)
system.mem_ctrls.bw_total::cpu03.inst         2498536                       # Total bandwidth to/from this memory (bytes/s)
system.mem_ctrls.bw_total::cpu03.data         4997072                       # Total bandwidth to/from this memory (bytes/s)
system.mem_ctrls.bw_total::cpu04.inst         1249268                       # Total bandwidth to/from this memory (bytes/s)
system.mem_ctrls.bw_total::cpu04.data         4997072                       # Total bandwidth to/from this memory (bytes/s)
system.mem_ctrls.bw_total::cpu05.inst         1249268                       # Total bandwidth to/from this memory (bytes/s)
system.mem_ctrls.bw_total::cpu05.data         4997072                       # Total bandwidth to/from this memory (bytes/s)
system.mem_ctrls.bw_total::cpu06.data         4997072                       # Total bandwidth to/from this memory (bytes/s)
system.mem_ctrls.bw_total::cpu07.data         4997072                       # Total bandwidth to/from this memory (bytes/s)
system.mem_ctrls.bw_total::cpu08.inst         8744876                       # Total bandwidth to/from this memory (bytes/s)
system.mem_ctrls.bw_total::cpu08.data         4997072                       # Total bandwidth to/from this memory (bytes/s)
system.mem_ctrls.bw_total::cpu09.data         4997072                       # Total bandwidth to/from this memory (bytes/s)
system.mem_ctrls.bw_total::cpu10.data         4997072                       # Total bandwidth to/from this memory (bytes/s)
system.mem_ctrls.bw_total::cpu11.inst         4997072                       # Total bandwidth to/from this memory (bytes/s)
system.mem_ctrls.bw_total::cpu11.data         4997072                       # Total bandwidth to/from this memory (bytes/s)
system.mem_ctrls.bw_total::cpu12.inst         1249268                       # Total bandwidth to/from this memory (bytes/s)
system.mem_ctrls.bw_total::cpu12.data         6246340                       # Total bandwidth to/from this memory (bytes/s)
system.mem_ctrls.bw_total::cpu13.data         4997072                       # Total bandwidth to/from this memory (bytes/s)
system.mem_ctrls.bw_total::cpu14.data         4997072                       # Total bandwidth to/from this memory (bytes/s)
system.mem_ctrls.bw_total::cpu15.inst         1249268                       # Total bandwidth to/from this memory (bytes/s)
system.mem_ctrls.bw_total::cpu15.data         4997072                       # Total bandwidth to/from this memory (bytes/s)
system.mem_ctrls.bw_total::total           1233027523                       # Total bandwidth to/from this memory (bytes/s)
system.mem_ctrls.readReqs                         987                       # Number of read requests accepted
system.mem_ctrls.writeReqs                          0                       # Number of write requests accepted
system.mem_ctrls.readBursts                       987                       # Number of DRAM read bursts, including those serviced by the write queue
system.mem_ctrls.writeBursts                        0                       # Number of DRAM write bursts, including those merged in the write queue
system.mem_ctrls.bytesReadDRAM                  63168                       # Total number of bytes read from DRAM
system.mem_ctrls.bytesReadWrQ                       0                       # Total number of bytes read from write queue
system.mem_ctrls.bytesWritten                       0                       # Total number of bytes written to DRAM
system.mem_ctrls.bytesReadSys                   63168                       # Total read bytes from the system interface side
system.mem_ctrls.bytesWrittenSys                    0                       # Total written bytes from the system interface side
system.mem_ctrls.servicedByWrQ                      0                       # Number of DRAM read bursts serviced by the write queue
system.mem_ctrls.mergedWrBursts                     0                       # Number of DRAM write bursts merged with an existing one
system.mem_ctrls.neitherReadNorWriteReqs           12                       # Number of requests that are neither read nor write
system.mem_ctrls.perBankRdBursts::0               116                       # Per bank write bursts
system.mem_ctrls.perBankRdBursts::1               133                       # Per bank write bursts
system.mem_ctrls.perBankRdBursts::2               133                       # Per bank write bursts
system.mem_ctrls.perBankRdBursts::3               224                       # Per bank write bursts
system.mem_ctrls.perBankRdBursts::4                85                       # Per bank write bursts
system.mem_ctrls.perBankRdBursts::5                17                       # Per bank write bursts
system.mem_ctrls.perBankRdBursts::6                81                       # Per bank write bursts
system.mem_ctrls.perBankRdBursts::7                31                       # Per bank write bursts
system.mem_ctrls.perBankRdBursts::8                14                       # Per bank write bursts
system.mem_ctrls.perBankRdBursts::9                10                       # Per bank write bursts
system.mem_ctrls.perBankRdBursts::10                0                       # Per bank write bursts
system.mem_ctrls.perBankRdBursts::11               12                       # Per bank write bursts
system.mem_ctrls.perBankRdBursts::12                6                       # Per bank write bursts
system.mem_ctrls.perBankRdBursts::13               33                       # Per bank write bursts
system.mem_ctrls.perBankRdBursts::14               38                       # Per bank write bursts
system.mem_ctrls.perBankRdBursts::15               54                       # Per bank write bursts
system.mem_ctrls.perBankWrBursts::0                 0                       # Per bank write bursts
system.mem_ctrls.perBankWrBursts::1                 0                       # Per bank write bursts
system.mem_ctrls.perBankWrBursts::2                 0                       # Per bank write bursts
system.mem_ctrls.perBankWrBursts::3                 0                       # Per bank write bursts
system.mem_ctrls.perBankWrBursts::4                 0                       # Per bank write bursts
system.mem_ctrls.perBankWrBursts::5                 0                       # Per bank write bursts
system.mem_ctrls.perBankWrBursts::6                 0                       # Per bank write bursts
system.mem_ctrls.perBankWrBursts::7                 0                       # Per bank write bursts
system.mem_ctrls.perBankWrBursts::8                 0                       # Per bank write bursts
system.mem_ctrls.perBankWrBursts::9                 0                       # Per bank write bursts
system.mem_ctrls.perBankWrBursts::10                0                       # Per bank write bursts
system.mem_ctrls.perBankWrBursts::11                0                       # Per bank write bursts
system.mem_ctrls.perBankWrBursts::12                0                       # Per bank write bursts
system.mem_ctrls.perBankWrBursts::13                0                       # Per bank write bursts
system.mem_ctrls.perBankWrBursts::14                0                       # Per bank write bursts
system.mem_ctrls.perBankWrBursts::15                0                       # Per bank write bursts
system.mem_ctrls.numRdRetry                         0                       # Number of times read queue was full causing retry
system.mem_ctrls.numWrRetry                         0                       # Number of times write queue was full causing retry
system.mem_ctrls.totGap                      51186500                       # Total gap between requests
system.mem_ctrls.readPktSize::0                     0                       # Read request sizes (log2)
system.mem_ctrls.readPktSize::1                     0                       # Read request sizes (log2)
system.mem_ctrls.readPktSize::2                     0                       # Read request sizes (log2)
system.mem_ctrls.readPktSize::3                     0                       # Read request sizes (log2)
system.mem_ctrls.readPktSize::4                     0                       # Read request sizes (log2)
system.mem_ctrls.readPktSize::5                     0                       # Read request sizes (log2)
system.mem_ctrls.readPktSize::6                   987                       # Read request sizes (log2)
system.mem_ctrls.writePktSize::0                    0                       # Write request sizes (log2)
system.mem_ctrls.writePktSize::1                    0                       # Write request sizes (log2)
system.mem_ctrls.writePktSize::2                    0                       # Write request sizes (log2)
system.mem_ctrls.writePktSize::3                    0                       # Write request sizes (log2)
system.mem_ctrls.writePktSize::4                    0                       # Write request sizes (log2)
system.mem_ctrls.writePktSize::5                    0                       # Write request sizes (log2)
system.mem_ctrls.writePktSize::6                    0                       # Write request sizes (log2)
system.mem_ctrls.rdQLenPdf::0                     509                       # What read queue length does an incoming req see
system.mem_ctrls.rdQLenPdf::1                     327                       # What read queue length does an incoming req see
system.mem_ctrls.rdQLenPdf::2                      91                       # What read queue length does an incoming req see
system.mem_ctrls.rdQLenPdf::3                      31                       # What read queue length does an incoming req see
system.mem_ctrls.rdQLenPdf::4                      10                       # What read queue length does an incoming req see
system.mem_ctrls.rdQLenPdf::5                       5                       # What read queue length does an incoming req see
system.mem_ctrls.rdQLenPdf::6                       4                       # What read queue length does an incoming req see
system.mem_ctrls.rdQLenPdf::7                       1                       # What read queue length does an incoming req see
system.mem_ctrls.rdQLenPdf::8                       2                       # What read queue length does an incoming req see
system.mem_ctrls.rdQLenPdf::9                       3                       # What read queue length does an incoming req see
system.mem_ctrls.rdQLenPdf::10                      2                       # What read queue length does an incoming req see
system.mem_ctrls.rdQLenPdf::11                      2                       # What read queue length does an incoming req see
system.mem_ctrls.rdQLenPdf::12                      0                       # What read queue length does an incoming req see
system.mem_ctrls.rdQLenPdf::13                      0                       # What read queue length does an incoming req see
system.mem_ctrls.rdQLenPdf::14                      0                       # What read queue length does an incoming req see
system.mem_ctrls.rdQLenPdf::15                      0                       # What read queue length does an incoming req see
system.mem_ctrls.rdQLenPdf::16                      0                       # What read queue length does an incoming req see
system.mem_ctrls.rdQLenPdf::17                      0                       # What read queue length does an incoming req see
system.mem_ctrls.rdQLenPdf::18                      0                       # What read queue length does an incoming req see
system.mem_ctrls.rdQLenPdf::19                      0                       # What read queue length does an incoming req see
system.mem_ctrls.rdQLenPdf::20                      0                       # What read queue length does an incoming req see
system.mem_ctrls.rdQLenPdf::21                      0                       # What read queue length does an incoming req see
system.mem_ctrls.rdQLenPdf::22                      0                       # What read queue length does an incoming req see
system.mem_ctrls.rdQLenPdf::23                      0                       # What read queue length does an incoming req see
system.mem_ctrls.rdQLenPdf::24                      0                       # What read queue length does an incoming req see
system.mem_ctrls.rdQLenPdf::25                      0                       # What read queue length does an incoming req see
system.mem_ctrls.rdQLenPdf::26                      0                       # What read queue length does an incoming req see
system.mem_ctrls.rdQLenPdf::27                      0                       # What read queue length does an incoming req see
system.mem_ctrls.rdQLenPdf::28                      0                       # What read queue length does an incoming req see
system.mem_ctrls.rdQLenPdf::29                      0                       # What read queue length does an incoming req see
system.mem_ctrls.rdQLenPdf::30                      0                       # What read queue length does an incoming req see
system.mem_ctrls.rdQLenPdf::31                      0                       # What read queue length does an incoming req see
system.mem_ctrls.wrQLenPdf::0                       0                       # What write queue length does an incoming req see
system.mem_ctrls.wrQLenPdf::1                       0                       # What write queue length does an incoming req see
system.mem_ctrls.wrQLenPdf::2                       0                       # What write queue length does an incoming req see
system.mem_ctrls.wrQLenPdf::3                       0                       # What write queue length does an incoming req see
system.mem_ctrls.wrQLenPdf::4                       0                       # What write queue length does an incoming req see
system.mem_ctrls.wrQLenPdf::5                       0                       # What write queue length does an incoming req see
system.mem_ctrls.wrQLenPdf::6                       0                       # What write queue length does an incoming req see
system.mem_ctrls.wrQLenPdf::7                       0                       # What write queue length does an incoming req see
system.mem_ctrls.wrQLenPdf::8                       0                       # What write queue length does an incoming req see
system.mem_ctrls.wrQLenPdf::9                       0                       # What write queue length does an incoming req see
system.mem_ctrls.wrQLenPdf::10                      0                       # What write queue length does an incoming req see
system.mem_ctrls.wrQLenPdf::11                      0                       # What write queue length does an incoming req see
system.mem_ctrls.wrQLenPdf::12                      0                       # What write queue length does an incoming req see
system.mem_ctrls.wrQLenPdf::13                      0                       # What write queue length does an incoming req see
system.mem_ctrls.wrQLenPdf::14                      0                       # What write queue length does an incoming req see
system.mem_ctrls.wrQLenPdf::15                      0                       # What write queue length does an incoming req see
system.mem_ctrls.wrQLenPdf::16                      0                       # What write queue length does an incoming req see
system.mem_ctrls.wrQLenPdf::17                      0                       # What write queue length does an incoming req see
system.mem_ctrls.wrQLenPdf::18                      0                       # What write queue length does an incoming req see
system.mem_ctrls.wrQLenPdf::19                      0                       # What write queue length does an incoming req see
system.mem_ctrls.wrQLenPdf::20                      0                       # What write queue length does an incoming req see
system.mem_ctrls.wrQLenPdf::21                      0                       # What write queue length does an incoming req see
system.mem_ctrls.wrQLenPdf::22                      0                       # What write queue length does an incoming req see
system.mem_ctrls.wrQLenPdf::23                      0                       # What write queue length does an incoming req see
system.mem_ctrls.wrQLenPdf::24                      0                       # What write queue length does an incoming req see
system.mem_ctrls.wrQLenPdf::25                      0                       # What write queue length does an incoming req see
system.mem_ctrls.wrQLenPdf::26                      0                       # What write queue length does an incoming req see
system.mem_ctrls.wrQLenPdf::27                      0                       # What write queue length does an incoming req see
system.mem_ctrls.wrQLenPdf::28                      0                       # What write queue length does an incoming req see
system.mem_ctrls.wrQLenPdf::29                      0                       # What write queue length does an incoming req see
system.mem_ctrls.wrQLenPdf::30                      0                       # What write queue length does an incoming req see
system.mem_ctrls.wrQLenPdf::31                      0                       # What write queue length does an incoming req see
system.mem_ctrls.wrQLenPdf::32                      0                       # What write queue length does an incoming req see
system.mem_ctrls.wrQLenPdf::33                      0                       # What write queue length does an incoming req see
system.mem_ctrls.wrQLenPdf::34                      0                       # What write queue length does an incoming req see
system.mem_ctrls.wrQLenPdf::35                      0                       # What write queue length does an incoming req see
system.mem_ctrls.wrQLenPdf::36                      0                       # What write queue length does an incoming req see
system.mem_ctrls.wrQLenPdf::37                      0                       # What write queue length does an incoming req see
system.mem_ctrls.wrQLenPdf::38                      0                       # What write queue length does an incoming req see
system.mem_ctrls.wrQLenPdf::39                      0                       # What write queue length does an incoming req see
system.mem_ctrls.wrQLenPdf::40                      0                       # What write queue length does an incoming req see
system.mem_ctrls.wrQLenPdf::41                      0                       # What write queue length does an incoming req see
system.mem_ctrls.wrQLenPdf::42                      0                       # What write queue length does an incoming req see
system.mem_ctrls.wrQLenPdf::43                      0                       # What write queue length does an incoming req see
system.mem_ctrls.wrQLenPdf::44                      0                       # What write queue length does an incoming req see
system.mem_ctrls.wrQLenPdf::45                      0                       # What write queue length does an incoming req see
system.mem_ctrls.wrQLenPdf::46                      0                       # What write queue length does an incoming req see
system.mem_ctrls.wrQLenPdf::47                      0                       # What write queue length does an incoming req see
system.mem_ctrls.wrQLenPdf::48                      0                       # What write queue length does an incoming req see
system.mem_ctrls.wrQLenPdf::49                      0                       # What write queue length does an incoming req see
system.mem_ctrls.wrQLenPdf::50                      0                       # What write queue length does an incoming req see
system.mem_ctrls.wrQLenPdf::51                      0                       # What write queue length does an incoming req see
system.mem_ctrls.wrQLenPdf::52                      0                       # What write queue length does an incoming req see
system.mem_ctrls.wrQLenPdf::53                      0                       # What write queue length does an incoming req see
system.mem_ctrls.wrQLenPdf::54                      0                       # What write queue length does an incoming req see
system.mem_ctrls.wrQLenPdf::55                      0                       # What write queue length does an incoming req see
system.mem_ctrls.wrQLenPdf::56                      0                       # What write queue length does an incoming req see
system.mem_ctrls.wrQLenPdf::57                      0                       # What write queue length does an incoming req see
system.mem_ctrls.wrQLenPdf::58                      0                       # What write queue length does an incoming req see
system.mem_ctrls.wrQLenPdf::59                      0                       # What write queue length does an incoming req see
system.mem_ctrls.wrQLenPdf::60                      0                       # What write queue length does an incoming req see
system.mem_ctrls.wrQLenPdf::61                      0                       # What write queue length does an incoming req see
system.mem_ctrls.wrQLenPdf::62                      0                       # What write queue length does an incoming req see
system.mem_ctrls.wrQLenPdf::63                      0                       # What write queue length does an incoming req see
system.mem_ctrls.bytesPerActivate::samples          273                       # Bytes accessed per row activation
system.mem_ctrls.bytesPerActivate::mean    225.054945                       # Bytes accessed per row activation
system.mem_ctrls.bytesPerActivate::gmean   132.210149                       # Bytes accessed per row activation
system.mem_ctrls.bytesPerActivate::stdev   277.132906                       # Bytes accessed per row activation
system.mem_ctrls.bytesPerActivate::0-127          149     54.58%     54.58% # Bytes accessed per row activation
system.mem_ctrls.bytesPerActivate::128-255           46     16.85%     71.43% # Bytes accessed per row activation
system.mem_ctrls.bytesPerActivate::256-383           29     10.62%     82.05% # Bytes accessed per row activation
system.mem_ctrls.bytesPerActivate::384-511            9      3.30%     85.35% # Bytes accessed per row activation
system.mem_ctrls.bytesPerActivate::512-639            7      2.56%     87.91% # Bytes accessed per row activation
system.mem_ctrls.bytesPerActivate::640-767            7      2.56%     90.48% # Bytes accessed per row activation
system.mem_ctrls.bytesPerActivate::768-895            5      1.83%     92.31% # Bytes accessed per row activation
system.mem_ctrls.bytesPerActivate::896-1023            6      2.20%     94.51% # Bytes accessed per row activation
system.mem_ctrls.bytesPerActivate::1024-1151           15      5.49%    100.00% # Bytes accessed per row activation
system.mem_ctrls.bytesPerActivate::total          273                       # Bytes accessed per row activation
system.mem_ctrls.totQLat                     15932499                       # Total ticks spent queuing
system.mem_ctrls.totMemAccLat                34438749                       # Total ticks spent from burst creation until serviced by the DRAM
system.mem_ctrls.totBusLat                    4935000                       # Total ticks spent in databus transfers
system.mem_ctrls.avgQLat                     16142.35                       # Average queueing delay per DRAM burst
system.mem_ctrls.avgBusLat                    5000.00                       # Average bus latency per DRAM burst
system.mem_ctrls.avgMemAccLat                34892.35                       # Average memory access latency per DRAM burst
system.mem_ctrls.avgRdBW                      1233.03                       # Average DRAM read bandwidth in MiByte/s
system.mem_ctrls.avgWrBW                         0.00                       # Average achieved write bandwidth in MiByte/s
system.mem_ctrls.avgRdBWSys                   1233.03                       # Average system read bandwidth in MiByte/s
system.mem_ctrls.avgWrBWSys                      0.00                       # Average system write bandwidth in MiByte/s
system.mem_ctrls.peakBW                      12800.00                       # Theoretical peak bandwidth in MiByte/s
system.mem_ctrls.busUtil                         9.63                       # Data bus utilization in percentage
system.mem_ctrls.busUtilRead                     9.63                       # Data bus utilization in percentage for reads
system.mem_ctrls.busUtilWrite                    0.00                       # Data bus utilization in percentage for writes
system.mem_ctrls.avgRdQLen                       1.88                       # Average read queue length when enqueuing
system.mem_ctrls.avgWrQLen                       0.00                       # Average write queue length when enqueuing
system.mem_ctrls.readRowHits                      704                       # Number of row buffer hits during reads
system.mem_ctrls.writeRowHits                       0                       # Number of row buffer hits during writes
system.mem_ctrls.readRowHitRate                 71.33                       # Row buffer hit rate for reads
system.mem_ctrls.writeRowHitRate                  nan                       # Row buffer hit rate for writes
system.mem_ctrls.avgGap                      51860.69                       # Average gap between requests
system.mem_ctrls.pageHitRate                    71.33                       # Row buffer hit rate, read and write combined
system.mem_ctrls_0.actEnergy                  1837080                       # Energy for activate commands per rank (pJ)
system.mem_ctrls_0.preEnergy                  1002375                       # Energy for precharge commands per rank (pJ)
system.mem_ctrls_0.readEnergy                 6232200                       # Energy for read commands per rank (pJ)
system.mem_ctrls_0.writeEnergy                      0                       # Energy for write commands per rank (pJ)
system.mem_ctrls_0.refreshEnergy              3051360                       # Energy for refresh commands per rank (pJ)
system.mem_ctrls_0.actBackEnergy             31851315                       # Energy for active background per rank (pJ)
system.mem_ctrls_0.preBackEnergy               246750                       # Energy for precharge background per rank (pJ)
system.mem_ctrls_0.totalEnergy               44221080                       # Total energy per rank (pJ)
system.mem_ctrls_0.averagePower            941.324677                       # Core power per rank (mW)
system.mem_ctrls_0.memoryStateTime::IDLE       754750                       # Time in different power states
system.mem_ctrls_0.memoryStateTime::REF       1560000                       # Time in different power states
system.mem_ctrls_0.memoryStateTime::PRE_PDN            0                       # Time in different power states
system.mem_ctrls_0.memoryStateTime::ACT      45242250                       # Time in different power states
system.mem_ctrls_0.memoryStateTime::ACT_PDN            0                       # Time in different power states
system.mem_ctrls_1.actEnergy                   173880                       # Energy for activate commands per rank (pJ)
system.mem_ctrls_1.preEnergy                    94875                       # Energy for precharge commands per rank (pJ)
system.mem_ctrls_1.readEnergy                 1006200                       # Energy for read commands per rank (pJ)
system.mem_ctrls_1.writeEnergy                      0                       # Energy for write commands per rank (pJ)
system.mem_ctrls_1.refreshEnergy              3051360                       # Energy for refresh commands per rank (pJ)
system.mem_ctrls_1.actBackEnergy             25371270                       # Energy for active background per rank (pJ)
system.mem_ctrls_1.preBackEnergy              5922750                       # Energy for precharge background per rank (pJ)
system.mem_ctrls_1.totalEnergy               35620335                       # Total energy per rank (pJ)
system.mem_ctrls_1.averagePower            758.464454                       # Core power per rank (mW)
system.mem_ctrls_1.memoryStateTime::IDLE     11014500                       # Time in different power states
system.mem_ctrls_1.memoryStateTime::REF       1560000                       # Time in different power states
system.mem_ctrls_1.memoryStateTime::PRE_PDN            0                       # Time in different power states
system.mem_ctrls_1.memoryStateTime::ACT      35699500                       # Time in different power states
system.mem_ctrls_1.memoryStateTime::ACT_PDN            0                       # Time in different power states
system.cpu00.branchPred.lookups                 10653                       # Number of BP lookups
system.cpu00.branchPred.condPredicted            8109                       # Number of conditional branches predicted
system.cpu00.branchPred.condIncorrect             996                       # Number of conditional branches incorrect
system.cpu00.branchPred.BTBLookups               8063                       # Number of BTB lookups
system.cpu00.branchPred.BTBHits                  4305                       # Number of BTB hits
system.cpu00.branchPred.BTBCorrect                  0                       # Number of correct BTB predictions (this stat may not work properly.
system.cpu00.branchPred.BTBHitPct           53.392038                       # BTB Hit Percentage
system.cpu00.branchPred.usedRAS                   979                       # Number of times the RAS was used to get a target.
system.cpu00.branchPred.RASInCorrect               13                       # Number of incorrect RAS predictions.
system.cpu_voltage_domain.voltage                   1                       # Voltage in Volts
system.cpu_clk_domain.clock                       500                       # Clock period in ticks
system.cpu00.dstage2_mmu.stage2_tlb.walker.walks            0                       # Table walker walks requested
system.cpu00.dstage2_mmu.stage2_tlb.walker.walkRequestOrigin_Requested::Data            0                       # Table walker requests started/completed, data/inst
system.cpu00.dstage2_mmu.stage2_tlb.walker.walkRequestOrigin_Requested::Inst            0                       # Table walker requests started/completed, data/inst
system.cpu00.dstage2_mmu.stage2_tlb.walker.walkRequestOrigin_Requested::total            0                       # Table walker requests started/completed, data/inst
system.cpu00.dstage2_mmu.stage2_tlb.walker.walkRequestOrigin_Completed::Data            0                       # Table walker requests started/completed, data/inst
system.cpu00.dstage2_mmu.stage2_tlb.walker.walkRequestOrigin_Completed::Inst            0                       # Table walker requests started/completed, data/inst
system.cpu00.dstage2_mmu.stage2_tlb.walker.walkRequestOrigin_Completed::total            0                       # Table walker requests started/completed, data/inst
system.cpu00.dstage2_mmu.stage2_tlb.walker.walkRequestOrigin::total            0                       # Table walker requests started/completed, data/inst
system.cpu00.dstage2_mmu.stage2_tlb.inst_hits            0                       # ITB inst hits
system.cpu00.dstage2_mmu.stage2_tlb.inst_misses            0                       # ITB inst misses
system.cpu00.dstage2_mmu.stage2_tlb.read_hits            0                       # DTB read hits
system.cpu00.dstage2_mmu.stage2_tlb.read_misses            0                       # DTB read misses
system.cpu00.dstage2_mmu.stage2_tlb.write_hits            0                       # DTB write hits
system.cpu00.dstage2_mmu.stage2_tlb.write_misses            0                       # DTB write misses
system.cpu00.dstage2_mmu.stage2_tlb.flush_tlb            0                       # Number of times complete TLB was flushed
system.cpu00.dstage2_mmu.stage2_tlb.flush_tlb_mva            0                       # Number of times TLB was flushed by MVA
system.cpu00.dstage2_mmu.stage2_tlb.flush_tlb_mva_asid            0                       # Number of times TLB was flushed by MVA & ASID
system.cpu00.dstage2_mmu.stage2_tlb.flush_tlb_asid            0                       # Number of times TLB was flushed by ASID
system.cpu00.dstage2_mmu.stage2_tlb.flush_entries            0                       # Number of entries that have been flushed from TLB
system.cpu00.dstage2_mmu.stage2_tlb.align_faults            0                       # Number of TLB faults due to alignment restrictions
system.cpu00.dstage2_mmu.stage2_tlb.prefetch_faults            0                       # Number of TLB faults due to prefetch
system.cpu00.dstage2_mmu.stage2_tlb.domain_faults            0                       # Number of TLB faults due to domain restrictions
system.cpu00.dstage2_mmu.stage2_tlb.perms_faults            0                       # Number of TLB faults due to permissions restrictions
system.cpu00.dstage2_mmu.stage2_tlb.read_accesses            0                       # DTB read accesses
system.cpu00.dstage2_mmu.stage2_tlb.write_accesses            0                       # DTB write accesses
system.cpu00.dstage2_mmu.stage2_tlb.inst_accesses            0                       # ITB inst accesses
system.cpu00.dstage2_mmu.stage2_tlb.hits            0                       # DTB hits
system.cpu00.dstage2_mmu.stage2_tlb.misses            0                       # DTB misses
system.cpu00.dstage2_mmu.stage2_tlb.accesses            0                       # DTB accesses
system.cpu00.dtb.walker.walks                       0                       # Table walker walks requested
system.cpu00.dtb.walker.walkRequestOrigin_Requested::Data            0                       # Table walker requests started/completed, data/inst
system.cpu00.dtb.walker.walkRequestOrigin_Requested::Inst            0                       # Table walker requests started/completed, data/inst
system.cpu00.dtb.walker.walkRequestOrigin_Requested::total            0                       # Table walker requests started/completed, data/inst
system.cpu00.dtb.walker.walkRequestOrigin_Completed::Data            0                       # Table walker requests started/completed, data/inst
system.cpu00.dtb.walker.walkRequestOrigin_Completed::Inst            0                       # Table walker requests started/completed, data/inst
system.cpu00.dtb.walker.walkRequestOrigin_Completed::total            0                       # Table walker requests started/completed, data/inst
system.cpu00.dtb.walker.walkRequestOrigin::total            0                       # Table walker requests started/completed, data/inst
system.cpu00.dtb.inst_hits                          0                       # ITB inst hits
system.cpu00.dtb.inst_misses                        0                       # ITB inst misses
system.cpu00.dtb.read_hits                          0                       # DTB read hits
system.cpu00.dtb.read_misses                        0                       # DTB read misses
system.cpu00.dtb.write_hits                         0                       # DTB write hits
system.cpu00.dtb.write_misses                       0                       # DTB write misses
system.cpu00.dtb.flush_tlb                          0                       # Number of times complete TLB was flushed
system.cpu00.dtb.flush_tlb_mva                      0                       # Number of times TLB was flushed by MVA
system.cpu00.dtb.flush_tlb_mva_asid                 0                       # Number of times TLB was flushed by MVA & ASID
system.cpu00.dtb.flush_tlb_asid                     0                       # Number of times TLB was flushed by ASID
system.cpu00.dtb.flush_entries                      0                       # Number of entries that have been flushed from TLB
system.cpu00.dtb.align_faults                       0                       # Number of TLB faults due to alignment restrictions
system.cpu00.dtb.prefetch_faults                    0                       # Number of TLB faults due to prefetch
system.cpu00.dtb.domain_faults                      0                       # Number of TLB faults due to domain restrictions
system.cpu00.dtb.perms_faults                       0                       # Number of TLB faults due to permissions restrictions
system.cpu00.dtb.read_accesses                      0                       # DTB read accesses
system.cpu00.dtb.write_accesses                     0                       # DTB write accesses
system.cpu00.dtb.inst_accesses                      0                       # ITB inst accesses
system.cpu00.dtb.hits                               0                       # DTB hits
system.cpu00.dtb.misses                             0                       # DTB misses
system.cpu00.dtb.accesses                           0                       # DTB accesses
system.cpu00.istage2_mmu.stage2_tlb.walker.walks            0                       # Table walker walks requested
system.cpu00.istage2_mmu.stage2_tlb.walker.walkRequestOrigin_Requested::Data            0                       # Table walker requests started/completed, data/inst
system.cpu00.istage2_mmu.stage2_tlb.walker.walkRequestOrigin_Requested::Inst            0                       # Table walker requests started/completed, data/inst
system.cpu00.istage2_mmu.stage2_tlb.walker.walkRequestOrigin_Requested::total            0                       # Table walker requests started/completed, data/inst
system.cpu00.istage2_mmu.stage2_tlb.walker.walkRequestOrigin_Completed::Data            0                       # Table walker requests started/completed, data/inst
system.cpu00.istage2_mmu.stage2_tlb.walker.walkRequestOrigin_Completed::Inst            0                       # Table walker requests started/completed, data/inst
system.cpu00.istage2_mmu.stage2_tlb.walker.walkRequestOrigin_Completed::total            0                       # Table walker requests started/completed, data/inst
system.cpu00.istage2_mmu.stage2_tlb.walker.walkRequestOrigin::total            0                       # Table walker requests started/completed, data/inst
system.cpu00.istage2_mmu.stage2_tlb.inst_hits            0                       # ITB inst hits
system.cpu00.istage2_mmu.stage2_tlb.inst_misses            0                       # ITB inst misses
system.cpu00.istage2_mmu.stage2_tlb.read_hits            0                       # DTB read hits
system.cpu00.istage2_mmu.stage2_tlb.read_misses            0                       # DTB read misses
system.cpu00.istage2_mmu.stage2_tlb.write_hits            0                       # DTB write hits
system.cpu00.istage2_mmu.stage2_tlb.write_misses            0                       # DTB write misses
system.cpu00.istage2_mmu.stage2_tlb.flush_tlb            0                       # Number of times complete TLB was flushed
system.cpu00.istage2_mmu.stage2_tlb.flush_tlb_mva            0                       # Number of times TLB was flushed by MVA
system.cpu00.istage2_mmu.stage2_tlb.flush_tlb_mva_asid            0                       # Number of times TLB was flushed by MVA & ASID
system.cpu00.istage2_mmu.stage2_tlb.flush_tlb_asid            0                       # Number of times TLB was flushed by ASID
system.cpu00.istage2_mmu.stage2_tlb.flush_entries            0                       # Number of entries that have been flushed from TLB
system.cpu00.istage2_mmu.stage2_tlb.align_faults            0                       # Number of TLB faults due to alignment restrictions
system.cpu00.istage2_mmu.stage2_tlb.prefetch_faults            0                       # Number of TLB faults due to prefetch
system.cpu00.istage2_mmu.stage2_tlb.domain_faults            0                       # Number of TLB faults due to domain restrictions
system.cpu00.istage2_mmu.stage2_tlb.perms_faults            0                       # Number of TLB faults due to permissions restrictions
system.cpu00.istage2_mmu.stage2_tlb.read_accesses            0                       # DTB read accesses
system.cpu00.istage2_mmu.stage2_tlb.write_accesses            0                       # DTB write accesses
system.cpu00.istage2_mmu.stage2_tlb.inst_accesses            0                       # ITB inst accesses
system.cpu00.istage2_mmu.stage2_tlb.hits            0                       # DTB hits
system.cpu00.istage2_mmu.stage2_tlb.misses            0                       # DTB misses
system.cpu00.istage2_mmu.stage2_tlb.accesses            0                       # DTB accesses
system.cpu00.itb.walker.walks                       0                       # Table walker walks requested
system.cpu00.itb.walker.walkRequestOrigin_Requested::Data            0                       # Table walker requests started/completed, data/inst
system.cpu00.itb.walker.walkRequestOrigin_Requested::Inst            0                       # Table walker requests started/completed, data/inst
system.cpu00.itb.walker.walkRequestOrigin_Requested::total            0                       # Table walker requests started/completed, data/inst
system.cpu00.itb.walker.walkRequestOrigin_Completed::Data            0                       # Table walker requests started/completed, data/inst
system.cpu00.itb.walker.walkRequestOrigin_Completed::Inst            0                       # Table walker requests started/completed, data/inst
system.cpu00.itb.walker.walkRequestOrigin_Completed::total            0                       # Table walker requests started/completed, data/inst
system.cpu00.itb.walker.walkRequestOrigin::total            0                       # Table walker requests started/completed, data/inst
system.cpu00.itb.inst_hits                          0                       # ITB inst hits
system.cpu00.itb.inst_misses                        0                       # ITB inst misses
system.cpu00.itb.read_hits                          0                       # DTB read hits
system.cpu00.itb.read_misses                        0                       # DTB read misses
system.cpu00.itb.write_hits                         0                       # DTB write hits
system.cpu00.itb.write_misses                       0                       # DTB write misses
system.cpu00.itb.flush_tlb                          0                       # Number of times complete TLB was flushed
system.cpu00.itb.flush_tlb_mva                      0                       # Number of times TLB was flushed by MVA
system.cpu00.itb.flush_tlb_mva_asid                 0                       # Number of times TLB was flushed by MVA & ASID
system.cpu00.itb.flush_tlb_asid                     0                       # Number of times TLB was flushed by ASID
system.cpu00.itb.flush_entries                      0                       # Number of entries that have been flushed from TLB
system.cpu00.itb.align_faults                       0                       # Number of TLB faults due to alignment restrictions
system.cpu00.itb.prefetch_faults                    0                       # Number of TLB faults due to prefetch
system.cpu00.itb.domain_faults                      0                       # Number of TLB faults due to domain restrictions
system.cpu00.itb.perms_faults                       0                       # Number of TLB faults due to permissions restrictions
system.cpu00.itb.read_accesses                      0                       # DTB read accesses
system.cpu00.itb.write_accesses                     0                       # DTB write accesses
system.cpu00.itb.inst_accesses                      0                       # ITB inst accesses
system.cpu00.itb.hits                               0                       # DTB hits
system.cpu00.itb.misses                             0                       # DTB misses
system.cpu00.itb.accesses                           0                       # DTB accesses
system.cpu00.workload.num_syscalls                335                       # Number of system calls
system.cpu00.numCycles                         102461                       # number of cpu cycles simulated
system.cpu00.numWorkItemsStarted                    0                       # number of work items this cpu started
system.cpu00.numWorkItemsCompleted                  0                       # number of work items this cpu completed
system.cpu00.fetch.icacheStallCycles            20750                       # Number of cycles fetch is stalled on an Icache miss
system.cpu00.fetch.Insts                        60607                       # Number of instructions fetch has processed
system.cpu00.fetch.Branches                     10653                       # Number of branches that fetch encountered
system.cpu00.fetch.predictedBranches             5284                       # Number of branches that fetch has predicted taken
system.cpu00.fetch.Cycles                       39594                       # Number of cycles fetch has run and was not squashing or blocked
system.cpu00.fetch.SquashCycles                  2123                       # Number of cycles fetch has spent squashing
system.cpu00.fetch.PendingTrapStallCycles            4                       # Number of stall cycles due to pending traps
system.cpu00.fetch.CacheLines                    7261                       # Number of cache lines fetched
system.cpu00.fetch.IcacheSquashes                 628                       # Number of outstanding Icache misses that were squashed
system.cpu00.fetch.rateDist::samples            61409                       # Number of instructions fetched each cycle (Total)
system.cpu00.fetch.rateDist::mean            1.147242                       # Number of instructions fetched each cycle (Total)
system.cpu00.fetch.rateDist::stdev           2.541143                       # Number of instructions fetched each cycle (Total)
system.cpu00.fetch.rateDist::underflows             0      0.00%      0.00% # Number of instructions fetched each cycle (Total)
system.cpu00.fetch.rateDist::0                  48967     79.74%     79.74% # Number of instructions fetched each cycle (Total)
system.cpu00.fetch.rateDist::1                    998      1.63%     81.36% # Number of instructions fetched each cycle (Total)
system.cpu00.fetch.rateDist::2                   1317      2.14%     83.51% # Number of instructions fetched each cycle (Total)
system.cpu00.fetch.rateDist::3                    762      1.24%     84.75% # Number of instructions fetched each cycle (Total)
system.cpu00.fetch.rateDist::4                   1190      1.94%     86.69% # Number of instructions fetched each cycle (Total)
system.cpu00.fetch.rateDist::5                    667      1.09%     87.77% # Number of instructions fetched each cycle (Total)
system.cpu00.fetch.rateDist::6                   1200      1.95%     89.73% # Number of instructions fetched each cycle (Total)
system.cpu00.fetch.rateDist::7                   1226      2.00%     91.72% # Number of instructions fetched each cycle (Total)
system.cpu00.fetch.rateDist::8                   5082      8.28%    100.00% # Number of instructions fetched each cycle (Total)
system.cpu00.fetch.rateDist::overflows              0      0.00%    100.00% # Number of instructions fetched each cycle (Total)
system.cpu00.fetch.rateDist::min_value              0                       # Number of instructions fetched each cycle (Total)
system.cpu00.fetch.rateDist::max_value              8                       # Number of instructions fetched each cycle (Total)
system.cpu00.fetch.rateDist::total              61409                       # Number of instructions fetched each cycle (Total)
system.cpu00.fetch.branchRate                0.103971                       # Number of branch fetches per cycle
system.cpu00.fetch.rate                      0.591513                       # Number of inst fetches per cycle
system.cpu00.decode.IdleCycles                  15720                       # Number of cycles decode is idle
system.cpu00.decode.BlockedCycles               35286                       # Number of cycles decode is blocked
system.cpu00.decode.RunCycles                    7494                       # Number of cycles decode is running
system.cpu00.decode.UnblockCycles                2155                       # Number of cycles decode is unblocking
system.cpu00.decode.SquashCycles                  754                       # Number of cycles decode is squashing
system.cpu00.decode.BranchResolved               1126                       # Number of times decode resolved a branch
system.cpu00.decode.BranchMispred                 319                       # Number of times decode detected a branch misprediction
system.cpu00.decode.DecodedInsts                60296                       # Number of instructions handled by decode
system.cpu00.decode.SquashedInsts                1182                       # Number of squashed instructions handled by decode
system.cpu00.rename.SquashCycles                  754                       # Number of cycles rename is squashing
system.cpu00.rename.IdleCycles                  16872                       # Number of cycles rename is idle
system.cpu00.rename.BlockCycles                  3344                       # Number of cycles rename is blocking
system.cpu00.rename.serializeStallCycles        14378                       # count of cycles rename stalled for serializing inst
system.cpu00.rename.RunCycles                    8458                       # Number of cycles rename is running
system.cpu00.rename.UnblockCycles               17603                       # Number of cycles rename is unblocking
system.cpu00.rename.RenamedInsts                58145                       # Number of instructions processed by rename
system.cpu00.rename.ROBFullEvents                   4                       # Number of times rename has blocked due to ROB full
system.cpu00.rename.IQFullEvents                 3609                       # Number of times rename has blocked due to IQ full
system.cpu00.rename.LQFullEvents                  255                       # Number of times rename has blocked due to LQ full
system.cpu00.rename.SQFullEvents                13464                       # Number of times rename has blocked due to SQ full
system.cpu00.rename.RenamedOperands             64723                       # Number of destination operands rename has renamed
system.cpu00.rename.RenameLookups              275108                       # Number of register rename lookups that rename has made
system.cpu00.rename.int_rename_lookups          75539                       # Number of integer rename lookups
system.cpu00.rename.fp_rename_lookups              22                       # Number of floating rename lookups
system.cpu00.rename.CommittedMaps               40746                       # Number of HB maps that are committed
system.cpu00.rename.UndoneMaps                  23977                       # Number of HB maps that are undone due to squashing
system.cpu00.rename.serializingInsts              162                       # count of serializing insts renamed
system.cpu00.rename.tempSerializingInsts          163                       # count of temporary serializing insts renamed
system.cpu00.rename.skidInsts                   10804                       # count of insts added to the skid buffer
system.cpu00.memDep0.insertedLoads               8166                       # Number of loads inserted to the mem dependence unit.
system.cpu00.memDep0.insertedStores              9065                       # Number of stores inserted to the mem dependence unit.
system.cpu00.memDep0.conflictingLoads             523                       # Number of conflicting loads.
system.cpu00.memDep0.conflictingStores            408                       # Number of conflicting stores.
system.cpu00.iq.iqInstsAdded                    55236                       # Number of instructions added to the IQ (excludes non-spec)
system.cpu00.iq.iqNonSpecInstsAdded               298                       # Number of non-speculative instructions added to the IQ
system.cpu00.iq.iqInstsIssued                   41041                       # Number of instructions issued
system.cpu00.iq.iqSquashedInstsIssued            1887                       # Number of squashed instructions issued
system.cpu00.iq.iqSquashedInstsExamined         18899                       # Number of squashed instructions iterated over during squash; mainly for profiling
system.cpu00.iq.iqSquashedOperandsExamined        69914                       # Number of squashed operands that are examined and possibly removed from graph
system.cpu00.iq.iqSquashedNonSpecRemoved           82                       # Number of squashed non-spec instructions that were removed
system.cpu00.iq.issued_per_cycle::samples        61409                       # Number of insts issued each cycle
system.cpu00.iq.issued_per_cycle::mean       0.668322                       # Number of insts issued each cycle
system.cpu00.iq.issued_per_cycle::stdev      0.917844                       # Number of insts issued each cycle
system.cpu00.iq.issued_per_cycle::underflows            0      0.00%      0.00% # Number of insts issued each cycle
system.cpu00.iq.issued_per_cycle::0             39428     64.21%     64.21% # Number of insts issued each cycle
system.cpu00.iq.issued_per_cycle::1              2921      4.76%     68.96% # Number of insts issued each cycle
system.cpu00.iq.issued_per_cycle::2             19060     31.04%    100.00% # Number of insts issued each cycle
system.cpu00.iq.issued_per_cycle::overflows            0      0.00%    100.00% # Number of insts issued each cycle
system.cpu00.iq.issued_per_cycle::min_value            0                       # Number of insts issued each cycle
system.cpu00.iq.issued_per_cycle::max_value            2                       # Number of insts issued each cycle
system.cpu00.iq.issued_per_cycle::total         61409                       # Number of insts issued each cycle
system.cpu00.iq.fu_full::No_OpClass                 0                       # attempts to use FU when none available
system.cpu00.iq.fu_full::IntAlu                     0                       # attempts to use FU when none available
system.cpu00.iq.fu_full::IntMult                    0                       # attempts to use FU when none available
system.cpu00.iq.fu_full::IntDiv                     0                       # attempts to use FU when none available
system.cpu00.iq.fu_full::FloatAdd                   0                       # attempts to use FU when none available
system.cpu00.iq.fu_full::FloatCmp                   0                       # attempts to use FU when none available
system.cpu00.iq.fu_full::FloatCvt                   0                       # attempts to use FU when none available
system.cpu00.iq.fu_full::FloatMult                  0                       # attempts to use FU when none available
system.cpu00.iq.fu_full::FloatDiv                   0                       # attempts to use FU when none available
system.cpu00.iq.fu_full::FloatSqrt                  0                       # attempts to use FU when none available
system.cpu00.iq.fu_full::SimdAdd                    0                       # attempts to use FU when none available
system.cpu00.iq.fu_full::SimdAddAcc                 0                       # attempts to use FU when none available
system.cpu00.iq.fu_full::SimdAlu                    0                       # attempts to use FU when none available
system.cpu00.iq.fu_full::SimdCmp                    0                       # attempts to use FU when none available
system.cpu00.iq.fu_full::SimdCvt                    0                       # attempts to use FU when none available
system.cpu00.iq.fu_full::SimdMisc                   0                       # attempts to use FU when none available
system.cpu00.iq.fu_full::SimdMult                   0                       # attempts to use FU when none available
system.cpu00.iq.fu_full::SimdMultAcc                0                       # attempts to use FU when none available
system.cpu00.iq.fu_full::SimdShift                  0                       # attempts to use FU when none available
system.cpu00.iq.fu_full::SimdShiftAcc               0                       # attempts to use FU when none available
system.cpu00.iq.fu_full::SimdSqrt                   0                       # attempts to use FU when none available
system.cpu00.iq.fu_full::SimdFloatAdd               0                       # attempts to use FU when none available
system.cpu00.iq.fu_full::SimdFloatAlu               0                       # attempts to use FU when none available
system.cpu00.iq.fu_full::SimdFloatCmp               0                       # attempts to use FU when none available
system.cpu00.iq.fu_full::SimdFloatCvt               0                       # attempts to use FU when none available
system.cpu00.iq.fu_full::SimdFloatDiv               0                       # attempts to use FU when none available
system.cpu00.iq.fu_full::SimdFloatMisc              0                       # attempts to use FU when none available
system.cpu00.iq.fu_full::SimdFloatMult              0                       # attempts to use FU when none available
system.cpu00.iq.fu_full::SimdFloatMultAcc            0                       # attempts to use FU when none available
system.cpu00.iq.fu_full::SimdFloatSqrt              0                       # attempts to use FU when none available
system.cpu00.iq.fu_full::MemRead                    0                       # attempts to use FU when none available
system.cpu00.iq.fu_full::MemWrite                   0                       # attempts to use FU when none available
system.cpu00.iq.fu_full::IprAccess                  0                       # attempts to use FU when none available
system.cpu00.iq.fu_full::InstPrefetch               0                       # attempts to use FU when none available
system.cpu00.iq.FU_type_0::No_OpClass               0      0.00%      0.00% # Type of FU issued
system.cpu00.iq.FU_type_0::IntAlu               26183     63.80%     63.80% # Type of FU issued
system.cpu00.iq.FU_type_0::IntMult               1356      3.30%     67.10% # Type of FU issued
system.cpu00.iq.FU_type_0::IntDiv                   0      0.00%     67.10% # Type of FU issued
system.cpu00.iq.FU_type_0::FloatAdd                 0      0.00%     67.10% # Type of FU issued
system.cpu00.iq.FU_type_0::FloatCmp                 0      0.00%     67.10% # Type of FU issued
system.cpu00.iq.FU_type_0::FloatCvt                 0      0.00%     67.10% # Type of FU issued
system.cpu00.iq.FU_type_0::FloatMult                0      0.00%     67.10% # Type of FU issued
system.cpu00.iq.FU_type_0::FloatDiv                 0      0.00%     67.10% # Type of FU issued
system.cpu00.iq.FU_type_0::FloatSqrt                0      0.00%     67.10% # Type of FU issued
system.cpu00.iq.FU_type_0::SimdAdd                  0      0.00%     67.10% # Type of FU issued
system.cpu00.iq.FU_type_0::SimdAddAcc               0      0.00%     67.10% # Type of FU issued
system.cpu00.iq.FU_type_0::SimdAlu                  0      0.00%     67.10% # Type of FU issued
system.cpu00.iq.FU_type_0::SimdCmp                  0      0.00%     67.10% # Type of FU issued
system.cpu00.iq.FU_type_0::SimdCvt                  0      0.00%     67.10% # Type of FU issued
system.cpu00.iq.FU_type_0::SimdMisc                 0      0.00%     67.10% # Type of FU issued
system.cpu00.iq.FU_type_0::SimdMult                 0      0.00%     67.10% # Type of FU issued
system.cpu00.iq.FU_type_0::SimdMultAcc              0      0.00%     67.10% # Type of FU issued
system.cpu00.iq.FU_type_0::SimdShift                0      0.00%     67.10% # Type of FU issued
system.cpu00.iq.FU_type_0::SimdShiftAcc             0      0.00%     67.10% # Type of FU issued
system.cpu00.iq.FU_type_0::SimdSqrt                 0      0.00%     67.10% # Type of FU issued
system.cpu00.iq.FU_type_0::SimdFloatAdd             0      0.00%     67.10% # Type of FU issued
system.cpu00.iq.FU_type_0::SimdFloatAlu             0      0.00%     67.10% # Type of FU issued
system.cpu00.iq.FU_type_0::SimdFloatCmp             0      0.00%     67.10% # Type of FU issued
system.cpu00.iq.FU_type_0::SimdFloatCvt             0      0.00%     67.10% # Type of FU issued
system.cpu00.iq.FU_type_0::SimdFloatDiv             0      0.00%     67.10% # Type of FU issued
system.cpu00.iq.FU_type_0::SimdFloatMisc            3      0.01%     67.11% # Type of FU issued
system.cpu00.iq.FU_type_0::SimdFloatMult            0      0.00%     67.11% # Type of FU issued
system.cpu00.iq.FU_type_0::SimdFloatMultAcc            0      0.00%     67.11% # Type of FU issued
system.cpu00.iq.FU_type_0::SimdFloatSqrt            0      0.00%     67.11% # Type of FU issued
system.cpu00.iq.FU_type_0::MemRead               6128     14.93%     82.04% # Type of FU issued
system.cpu00.iq.FU_type_0::MemWrite              7371     17.96%    100.00% # Type of FU issued
system.cpu00.iq.FU_type_0::IprAccess                0      0.00%    100.00% # Type of FU issued
system.cpu00.iq.FU_type_0::InstPrefetch             0      0.00%    100.00% # Type of FU issued
system.cpu00.iq.FU_type_0::total                41041                       # Type of FU issued
system.cpu00.iq.rate                         0.400552                       # Inst issue rate
system.cpu00.iq.fu_busy_cnt                         0                       # FU busy when requested
system.cpu00.iq.fu_busy_rate                        0                       # FU busy rate (busy events/executed inst)
system.cpu00.iq.int_inst_queue_reads           145322                       # Number of integer instruction queue reads
system.cpu00.iq.int_inst_queue_writes           74431                       # Number of integer instruction queue writes
system.cpu00.iq.int_inst_queue_wakeup_accesses        39957                       # Number of integer instruction queue wakeup accesses
system.cpu00.iq.fp_inst_queue_reads                56                       # Number of floating instruction queue reads
system.cpu00.iq.fp_inst_queue_writes               28                       # Number of floating instruction queue writes
system.cpu00.iq.fp_inst_queue_wakeup_accesses           28                       # Number of floating instruction queue wakeup accesses
system.cpu00.iq.int_alu_accesses                41013                       # Number of integer alu accesses
system.cpu00.iq.fp_alu_accesses                    28                       # Number of floating point alu accesses
system.cpu00.iew.lsq.thread0.forwLoads             76                       # Number of loads that had data forwarded from stores
system.cpu00.iew.lsq.thread0.invAddrLoads            0                       # Number of loads ignored due to an invalid address
system.cpu00.iew.lsq.thread0.squashedLoads         3370                       # Number of loads squashed
system.cpu00.iew.lsq.thread0.ignoredResponses            3                       # Number of memory responses ignored because the instruction is squashed
system.cpu00.iew.lsq.thread0.memOrderViolation           26                       # Number of memory ordering violations
system.cpu00.iew.lsq.thread0.squashedStores         2030                       # Number of stores squashed
system.cpu00.iew.lsq.thread0.invAddrSwpfs            0                       # Number of software prefetches ignored due to an invalid address
system.cpu00.iew.lsq.thread0.blockedLoads            0                       # Number of blocked loads due to partial load-store forwarding
system.cpu00.iew.lsq.thread0.rescheduledLoads           31                       # Number of loads that were rescheduled
system.cpu00.iew.lsq.thread0.cacheBlocked           59                       # Number of times an access to memory failed due to the cache being blocked
system.cpu00.iew.iewIdleCycles                      0                       # Number of cycles IEW is idle
system.cpu00.iew.iewSquashCycles                  754                       # Number of cycles IEW is squashing
system.cpu00.iew.iewBlockCycles                  2689                       # Number of cycles IEW is blocking
system.cpu00.iew.iewUnblockCycles                 447                       # Number of cycles IEW is unblocking
system.cpu00.iew.iewDispatchedInsts             55541                       # Number of instructions dispatched to IQ
system.cpu00.iew.iewDispSquashedInsts             111                       # Number of squashed instructions skipped by dispatch
[...]
system.tol2bus.pkt_count_system.cpu06.dcache.mem_side::system.l2.cpu_side          107                       # Packet count per connected master and slave (bytes)
system.tol2bus.pkt_count_system.cpu07.icache.mem_side::system.l2.cpu_side          108                       # Packet count per connected master and slave (bytes)
system.tol2bus.pkt_count_system.cpu07.dcache.mem_side::system.l2.cpu_side          106                       # Packet count per connected master and slave (bytes)
system.tol2bus.pkt_count_system.cpu08.icache.mem_side::system.l2.cpu_side          108                       # Packet count per connected master and slave (bytes)
system.tol2bus.pkt_count_system.cpu08.dcache.mem_side::system.l2.cpu_side          108                       # Packet count per connected master and slave (bytes)
system.tol2bus.pkt_count_system.cpu09.icache.mem_side::system.l2.cpu_side          108                       # Packet count per connected master and slave (bytes)
system.tol2bus.pkt_count_system.cpu09.dcache.mem_side::system.l2.cpu_side          100                       # Packet count per connected master and slave (bytes)
system.tol2bus.pkt_count_system.cpu10.icache.mem_side::system.l2.cpu_side          114                       # Packet count per connected master and slave (bytes)
system.tol2bus.pkt_count_system.cpu10.dcache.mem_side::system.l2.cpu_side          101                       # Packet count per connected master and slave (bytes)
system.tol2bus.pkt_count_system.cpu11.icache.mem_side::system.l2.cpu_side          114                       # Packet count per connected master and slave (bytes)
system.tol2bus.pkt_count_system.cpu11.dcache.mem_side::system.l2.cpu_side          102                       # Packet count per connected master and slave (bytes)
system.tol2bus.pkt_count_system.cpu12.icache.mem_side::system.l2.cpu_side          114                       # Packet count per connected master and slave (bytes)
system.tol2bus.pkt_count_system.cpu12.dcache.mem_side::system.l2.cpu_side          108                       # Packet count per connected master and slave (bytes)
system.tol2bus.pkt_count_system.cpu13.icache.mem_side::system.l2.cpu_side          110                       # Packet count per connected master and slave (bytes)
system.tol2bus.pkt_count_system.cpu13.dcache.mem_side::system.l2.cpu_side           99                       # Packet count per connected master and slave (bytes)
system.tol2bus.pkt_count_system.cpu14.icache.mem_side::system.l2.cpu_side          108                       # Packet count per connected master and slave (bytes)
system.tol2bus.pkt_count_system.cpu14.dcache.mem_side::system.l2.cpu_side           96                       # Packet count per connected master and slave (bytes)
system.tol2bus.pkt_count_system.cpu15.icache.mem_side::system.l2.cpu_side          102                       # Packet count per connected master and slave (bytes)
system.tol2bus.pkt_count_system.cpu15.dcache.mem_side::system.l2.cpu_side          108                       # Packet count per connected master and slave (bytes)
system.tol2bus.pkt_count::total                  5380                       # Packet count per connected master and slave (bytes)
system.tol2bus.pkt_size_system.cpu00.icache.mem_side::system.l2.cpu_side        38656                       # Cumulative packet size per connected master and slave (bytes)
system.tol2bus.pkt_size_system.cpu00.dcache.mem_side::system.l2.cpu_side        31552                       # Cumulative packet size per connected master and slave (bytes)
system.tol2bus.pkt_size_system.cpu01.icache.mem_side::system.l2.cpu_side         3328                       # Cumulative packet size per connected master and slave (bytes)
system.tol2bus.pkt_size_system.cpu01.dcache.mem_side::system.l2.cpu_side         1088                       # Cumulative packet size per connected master and slave (bytes)
system.tol2bus.pkt_size_system.cpu02.icache.mem_side::system.l2.cpu_side         3328                       # Cumulative packet size per connected master and slave (bytes)
system.tol2bus.pkt_size_system.cpu02.dcache.mem_side::system.l2.cpu_side          960                       # Cumulative packet size per connected master and slave (bytes)
system.tol2bus.pkt_size_system.cpu03.icache.mem_side::system.l2.cpu_side         3456                       # Cumulative packet size per connected master and slave (bytes)
system.tol2bus.pkt_size_system.cpu03.dcache.mem_side::system.l2.cpu_side         1024                       # Cumulative packet size per connected master and slave (bytes)
system.tol2bus.pkt_size_system.cpu04.icache.mem_side::system.l2.cpu_side         3392                       # Cumulative packet size per connected master and slave (bytes)
system.tol2bus.pkt_size_system.cpu04.dcache.mem_side::system.l2.cpu_side         1024                       # Cumulative packet size per connected master and slave (bytes)
system.tol2bus.pkt_size_system.cpu05.icache.mem_side::system.l2.cpu_side         3456                       # Cumulative packet size per connected master and slave (bytes)
system.tol2bus.pkt_size_system.cpu05.dcache.mem_side::system.l2.cpu_side         1152                       # Cumulative packet size per connected master and slave (bytes)
system.tol2bus.pkt_size_system.cpu06.icache.mem_side::system.l2.cpu_side         3456                       # Cumulative packet size per connected master and slave (bytes)
system.tol2bus.pkt_size_system.cpu06.dcache.mem_side::system.l2.cpu_side         1024                       # Cumulative packet size per connected master and slave (bytes)
system.tol2bus.pkt_size_system.cpu07.icache.mem_side::system.l2.cpu_side         3456                       # Cumulative packet size per connected master and slave (bytes)
system.tol2bus.pkt_size_system.cpu07.dcache.mem_side::system.l2.cpu_side         1024                       # Cumulative packet size per connected master and slave (bytes)
system.tol2bus.pkt_size_system.cpu08.icache.mem_side::system.l2.cpu_side         3456                       # Cumulative packet size per connected master and slave (bytes)
system.tol2bus.pkt_size_system.cpu08.dcache.mem_side::system.l2.cpu_side         1088                       # Cumulative packet size per connected master and slave (bytes)
system.tol2bus.pkt_size_system.cpu09.icache.mem_side::system.l2.cpu_side         3456                       # Cumulative packet size per connected master and slave (bytes)
system.tol2bus.pkt_size_system.cpu09.dcache.mem_side::system.l2.cpu_side         1024                       # Cumulative packet size per connected master and slave (bytes)
system.tol2bus.pkt_size_system.cpu10.icache.mem_side::system.l2.cpu_side         3648                       # Cumulative packet size per connected master and slave (bytes)
system.tol2bus.pkt_size_system.cpu10.dcache.mem_side::system.l2.cpu_side         1088                       # Cumulative packet size per connected master and slave (bytes)
system.tol2bus.pkt_size_system.cpu11.icache.mem_side::system.l2.cpu_side         3648                       # Cumulative packet size per connected master and slave (bytes)
system.tol2bus.pkt_size_system.cpu11.dcache.mem_side::system.l2.cpu_side         1024                       # Cumulative packet size per connected master and slave (bytes)
system.tol2bus.pkt_size_system.cpu12.icache.mem_side::system.l2.cpu_side         3648                       # Cumulative packet size per connected master and slave (bytes)
system.tol2bus.pkt_size_system.cpu12.dcache.mem_side::system.l2.cpu_side         1088                       # Cumulative packet size per connected master and slave (bytes)
system.tol2bus.pkt_size_system.cpu13.icache.mem_side::system.l2.cpu_side         3520                       # Cumulative packet size per connected master and slave (bytes)
system.tol2bus.pkt_size_system.cpu13.dcache.mem_side::system.l2.cpu_side         1088                       # Cumulative packet size per connected master and slave (bytes)
system.tol2bus.pkt_size_system.cpu14.icache.mem_side::system.l2.cpu_side         3456                       # Cumulative packet size per connected master and slave (bytes)
system.tol2bus.pkt_size_system.cpu14.dcache.mem_side::system.l2.cpu_side         1024                       # Cumulative packet size per connected master and slave (bytes)
system.tol2bus.pkt_size_system.cpu15.icache.mem_side::system.l2.cpu_side         3264                       # Cumulative packet size per connected master and slave (bytes)
system.tol2bus.pkt_size_system.cpu15.dcache.mem_side::system.l2.cpu_side         1088                       # Cumulative packet size per connected master and slave (bytes)
system.tol2bus.pkt_size::total                 137984                       # Cumulative packet size per connected master and slave (bytes)
system.tol2bus.snoops                            1081                       # Total snoops (count)
system.tol2bus.snoop_fanout::samples             3261                       # Request fanout histogram
system.tol2bus.snoop_fanout::mean                  31                       # Request fanout histogram
system.tol2bus.snoop_fanout::stdev                  0                       # Request fanout histogram
system.tol2bus.snoop_fanout::underflows             0      0.00%      0.00% # Request fanout histogram
system.tol2bus.snoop_fanout::0                      0      0.00%      0.00% # Request fanout histogram
system.tol2bus.snoop_fanout::1                      0      0.00%      0.00% # Request fanout histogram
system.tol2bus.snoop_fanout::2                      0      0.00%      0.00% # Request fanout histogram
system.tol2bus.snoop_fanout::3                      0      0.00%      0.00% # Request fanout histogram
system.tol2bus.snoop_fanout::4                      0      0.00%      0.00% # Request fanout histogram
system.tol2bus.snoop_fanout::5                      0      0.00%      0.00% # Request fanout histogram
system.tol2bus.snoop_fanout::6                      0      0.00%      0.00% # Request fanout histogram
system.tol2bus.snoop_fanout::7                      0      0.00%      0.00% # Request fanout histogram
system.tol2bus.snoop_fanout::8                      0      0.00%      0.00% # Request fanout histogram
system.tol2bus.snoop_fanout::9                      0      0.00%      0.00% # Request fanout histogram
system.tol2bus.snoop_fanout::10                     0      0.00%      0.00% # Request fanout histogram
system.tol2bus.snoop_fanout::11                     0      0.00%      0.00% # Request fanout histogram
system.tol2bus.snoop_fanout::12                     0      0.00%      0.00% # Request fanout histogram
system.tol2bus.snoop_fanout::13                     0      0.00%      0.00% # Request fanout histogram
system.tol2bus.snoop_fanout::14                     0      0.00%      0.00% # Request fanout histogram
system.tol2bus.snoop_fanout::15                     0      0.00%      0.00% # Request fanout histogram
system.tol2bus.snoop_fanout::16                     0      0.00%      0.00% # Request fanout histogram
system.tol2bus.snoop_fanout::17                     0      0.00%      0.00% # Request fanout histogram
system.tol2bus.snoop_fanout::18                     0      0.00%      0.00% # Request fanout histogram
system.tol2bus.snoop_fanout::19                     0      0.00%      0.00% # Request fanout histogram
system.tol2bus.snoop_fanout::20                     0      0.00%      0.00% # Request fanout histogram
system.tol2bus.snoop_fanout::21                     0      0.00%      0.00% # Request fanout histogram
system.tol2bus.snoop_fanout::22                     0      0.00%      0.00% # Request fanout histogram
system.tol2bus.snoop_fanout::23                     0      0.00%      0.00% # Request fanout histogram
system.tol2bus.snoop_fanout::24                     0      0.00%      0.00% # Request fanout histogram
system.tol2bus.snoop_fanout::25                     0      0.00%      0.00% # Request fanout histogram
system.tol2bus.snoop_fanout::26                     0      0.00%      0.00% # Request fanout histogram
system.tol2bus.snoop_fanout::27                     0      0.00%      0.00% # Request fanout histogram
system.tol2bus.snoop_fanout::28                     0      0.00%      0.00% # Request fanout histogram
system.tol2bus.snoop_fanout::29                     0      0.00%      0.00% # Request fanout histogram
system.tol2bus.snoop_fanout::30                     0      0.00%      0.00% # Request fanout histogram
system.tol2bus.snoop_fanout::31                  3261    100.00%    100.00% # Request fanout histogram
system.tol2bus.snoop_fanout::32                     0      0.00%    100.00% # Request fanout histogram
system.tol2bus.snoop_fanout::overflows              0      0.00%    100.00% # Request fanout histogram
system.tol2bus.snoop_fanout::min_value             31                       # Request fanout histogram
system.tol2bus.snoop_fanout::max_value             31                       # Request fanout histogram
system.tol2bus.snoop_fanout::total               3261                       # Request fanout histogram
system.tol2bus.reqLayer0.occupancy            1676991                       # Layer occupancy (ticks)
system.tol2bus.reqLayer0.utilization              3.3                       # Layer utilization (%)
system.tol2bus.respLayer0.occupancy           1002714                       # Layer occupancy (ticks)
system.tol2bus.respLayer0.utilization             2.0                       # Layer utilization (%)
system.tol2bus.respLayer1.occupancy            774988                       # Layer occupancy (ticks)
system.tol2bus.respLayer1.utilization             1.5                       # Layer utilization (%)
system.tol2bus.respLayer4.occupancy             85439                       # Layer occupancy (ticks)
system.tol2bus.respLayer4.utilization             0.2                       # Layer utilization (%)
system.tol2bus.respLayer5.occupancy            142245                       # Layer occupancy (ticks)
system.tol2bus.respLayer5.utilization             0.3                       # Layer utilization (%)
system.tol2bus.respLayer8.occupancy             87442                       # Layer occupancy (ticks)
system.tol2bus.respLayer8.utilization             0.2                       # Layer utilization (%)
system.tol2bus.respLayer9.occupancy            129743                       # Layer occupancy (ticks)
system.tol2bus.respLayer9.utilization             0.3                       # Layer utilization (%)
system.tol2bus.respLayer12.occupancy            88689                       # Layer occupancy (ticks)
system.tol2bus.respLayer12.utilization            0.2                       # Layer utilization (%)
system.tol2bus.respLayer13.occupancy           132239                       # Layer occupancy (ticks)
system.tol2bus.respLayer13.utilization            0.3                       # Layer utilization (%)
system.tol2bus.respLayer16.occupancy            84943                       # Layer occupancy (ticks)
system.tol2bus.respLayer16.utilization            0.2                       # Layer utilization (%)
system.tol2bus.respLayer17.occupancy           123495                       # Layer occupancy (ticks)
system.tol2bus.respLayer17.utilization            0.2                       # Layer utilization (%)
system.tol2bus.respLayer20.occupancy            84701                       # Layer occupancy (ticks)
system.tol2bus.respLayer20.utilization            0.2                       # Layer utilization (%)
system.tol2bus.respLayer21.occupancy           132993                       # Layer occupancy (ticks)
system.tol2bus.respLayer21.utilization            0.3                       # Layer utilization (%)
system.tol2bus.respLayer24.occupancy            84449                       # Layer occupancy (ticks)
system.tol2bus.respLayer24.utilization            0.2                       # Layer utilization (%)
system.tol2bus.respLayer25.occupancy           134992                       # Layer occupancy (ticks)
system.tol2bus.respLayer25.utilization            0.3                       # Layer utilization (%)
system.tol2bus.respLayer28.occupancy            84197                       # Layer occupancy (ticks)
system.tol2bus.respLayer28.utilization            0.2                       # Layer utilization (%)
system.tol2bus.respLayer29.occupancy           133232                       # Layer occupancy (ticks)
system.tol2bus.respLayer29.utilization            0.3                       # Layer utilization (%)
system.tol2bus.respLayer32.occupancy            83222                       # Layer occupancy (ticks)
system.tol2bus.respLayer32.utilization            0.2                       # Layer utilization (%)
system.tol2bus.respLayer33.occupancy           134994                       # Layer occupancy (ticks)
system.tol2bus.respLayer33.utilization            0.3                       # Layer utilization (%)
system.tol2bus.respLayer36.occupancy            84701                       # Layer occupancy (ticks)
system.tol2bus.respLayer36.utilization            0.2                       # Layer utilization (%)
system.tol2bus.respLayer37.occupancy           124493                       # Layer occupancy (ticks)
system.tol2bus.respLayer37.utilization            0.2                       # Layer utilization (%)
system.tol2bus.respLayer40.occupancy            89696                       # Layer occupancy (ticks)
system.tol2bus.respLayer40.utilization            0.2                       # Layer utilization (%)
system.tol2bus.respLayer41.occupancy           125487                       # Layer occupancy (ticks)
system.tol2bus.respLayer41.utilization            0.2                       # Layer utilization (%)
system.tol2bus.respLayer44.occupancy            88698                       # Layer occupancy (ticks)
system.tol2bus.respLayer44.utilization            0.2                       # Layer utilization (%)
system.tol2bus.respLayer45.occupancy           128486                       # Layer occupancy (ticks)
system.tol2bus.respLayer45.utilization            0.3                       # Layer utilization (%)
system.tol2bus.respLayer48.occupancy            87489                       # Layer occupancy (ticks)
system.tol2bus.respLayer48.utilization            0.2                       # Layer utilization (%)
system.tol2bus.respLayer49.occupancy           133501                       # Layer occupancy (ticks)
system.tol2bus.respLayer49.utilization            0.3                       # Layer utilization (%)
system.tol2bus.respLayer52.occupancy            85231                       # Layer occupancy (ticks)
system.tol2bus.respLayer52.utilization            0.2                       # Layer utilization (%)
system.tol2bus.respLayer53.occupancy           119750                       # Layer occupancy (ticks)
system.tol2bus.respLayer53.utilization            0.2                       # Layer utilization (%)
system.tol2bus.respLayer56.occupancy            82747                       # Layer occupancy (ticks)
system.tol2bus.respLayer56.utilization            0.2                       # Layer utilization (%)
system.tol2bus.respLayer57.occupancy           116750                       # Layer occupancy (ticks)
system.tol2bus.respLayer57.utilization            0.2                       # Layer utilization (%)
system.tol2bus.respLayer60.occupancy            76750                       # Layer occupancy (ticks)
system.tol2bus.respLayer60.utilization            0.1                       # Layer utilization (%)
system.tol2bus.respLayer61.occupancy           131748                       # Layer occupancy (ticks)
system.tol2bus.respLayer61.utilization            0.3                       # Layer utilization (%)

---------- End Simulation Statistics   ----------
