
---------- Begin Simulation Statistics ----------
sim_seconds                                  0.000051                       # Number of seconds simulated
sim_ticks                                    50591000                       # Number of ticks simulated
final_tick                                   50591000                       # Number of ticks from beginning of simulation (restored from checkpoints and never reset)
sim_freq                                 1000000000000                       # Frequency of simulated ticks
host_inst_rate                                 111758                       # Simulator instruction rate (inst/s)
host_op_rate                                   118362                       # Simulator op (including micro ops) rate (op/s)
host_tick_rate                               48064498                       # Simulator tick rate (ticks/s)
host_mem_usage                                 662292                       # Number of bytes of host memory used
host_seconds                                     1.05                       # Real time elapsed on the host
sim_insts                                      117628                       # Number of instructions simulated
sim_ops                                        124581                       # Number of ops (including micro ops) simulated
system.voltage_domain.voltage                       1                       # Voltage in Volts
system.clk_domain.clock                          1000                       # Clock period in ticks
system.mem_ctrls.bytes_read::cpu0.inst          32704                       # Number of bytes read from this memory
system.mem_ctrls.bytes_read::cpu0.data          22016                       # Number of bytes read from this memory
system.mem_ctrls.bytes_read::cpu1.inst            960                       # Number of bytes read from this memory
system.mem_ctrls.bytes_read::cpu1.data            320                       # Number of bytes read from this memory
system.mem_ctrls.bytes_read::cpu2.inst            320                       # Number of bytes read from this memory
system.mem_ctrls.bytes_read::cpu2.data            256                       # Number of bytes read from this memory
system.mem_ctrls.bytes_read::cpu3.inst            192                       # Number of bytes read from this memory
system.mem_ctrls.bytes_read::cpu3.data            320                       # Number of bytes read from this memory
system.mem_ctrls.bytes_read::total              57088                       # Number of bytes read from this memory
system.mem_ctrls.bytes_inst_read::cpu0.inst        32704                       # Number of instructions bytes read from this memory
system.mem_ctrls.bytes_inst_read::cpu1.inst          960                       # Number of instructions bytes read from this memory
system.mem_ctrls.bytes_inst_read::cpu2.inst          320                       # Number of instructions bytes read from this memory
system.mem_ctrls.bytes_inst_read::cpu3.inst          192                       # Number of instructions bytes read from this memory
system.mem_ctrls.bytes_inst_read::total         34176                       # Number of instructions bytes read from this memory
system.mem_ctrls.num_reads::cpu0.inst             511                       # Number of read requests responded to by this memory
system.mem_ctrls.num_reads::cpu0.data             344                       # Number of read requests responded to by this memory
system.mem_ctrls.num_reads::cpu1.inst              15                       # Number of read requests responded to by this memory
system.mem_ctrls.num_reads::cpu1.data               5                       # Number of read requests responded to by this memory
system.mem_ctrls.num_reads::cpu2.inst               5                       # Number of read requests responded to by this memory
system.mem_ctrls.num_reads::cpu2.data               4                       # Number of read requests responded to by this memory
system.mem_ctrls.num_reads::cpu3.inst               3                       # Number of read requests responded to by this memory
system.mem_ctrls.num_reads::cpu3.data               5                       # Number of read requests responded to by this memory
system.mem_ctrls.num_reads::total                 892                       # Number of read requests responded to by this memory
system.mem_ctrls.bw_read::cpu0.inst         646439090                       # Total read bandwidth from this memory (bytes/s)
system.mem_ctrls.bw_read::cpu0.data         435176217                       # Total read bandwidth from this memory (bytes/s)
system.mem_ctrls.bw_read::cpu1.inst          18975707                       # Total read bandwidth from this memory (bytes/s)
system.mem_ctrls.bw_read::cpu1.data           6325236                       # Total read bandwidth from this memory (bytes/s)
system.mem_ctrls.bw_read::cpu2.inst           6325236                       # Total read bandwidth from this memory (bytes/s)
system.mem_ctrls.bw_read::cpu2.data           5060189                       # Total read bandwidth from this memory (bytes/s)
system.mem_ctrls.bw_read::cpu3.inst           3795141                       # Total read bandwidth from this memory (bytes/s)
system.mem_ctrls.bw_read::cpu3.data           6325236                       # Total read bandwidth from this memory (bytes/s)
system.mem_ctrls.bw_read::total            1128422051                       # Total read bandwidth from this memory (bytes/s)
system.mem_ctrls.bw_inst_read::cpu0.inst    646439090                       # Instruction read bandwidth from this memory (bytes/s)
system.mem_ctrls.bw_inst_read::cpu1.inst     18975707                       # Instruction read bandwidth from this memory (bytes/s)
system.mem_ctrls.bw_inst_read::cpu2.inst      6325236                       # Instruction read bandwidth from this memory (bytes/s)
system.mem_ctrls.bw_inst_read::cpu3.inst      3795141                       # Instruction read bandwidth from this memory (bytes/s)
system.mem_ctrls.bw_inst_read::total        675535174                       # Instruction read bandwidth from this memory (bytes/s)
system.mem_ctrls.bw_total::cpu0.inst        646439090                       # Total bandwidth to/from this memory (bytes/s)
system.mem_ctrls.bw_total::cpu0.data        435176217                       # Total bandwidth to/from this memory (bytes/s)
system.mem_ctrls.bw_total::cpu1.inst         18975707                       # Total bandwidth to/from this memory (bytes/s)
system.mem_ctrls.bw_total::cpu1.data          6325236                       # Total bandwidth to/from this memory (bytes/s)
system.mem_ctrls.bw_total::cpu2.inst          6325236                       # Total bandwidth to/from this memory (bytes/s)
system.mem_ctrls.bw_total::cpu2.data          5060189                       # Total bandwidth to/from this memory (bytes/s)
system.mem_ctrls.bw_total::cpu3.inst          3795141                       # Total bandwidth to/from this memory (bytes/s)
system.mem_ctrls.bw_total::cpu3.data          6325236                       # Total bandwidth to/from this memory (bytes/s)
system.mem_ctrls.bw_total::total           1128422051                       # Total bandwidth to/from this memory (bytes/s)
system.mem_ctrls.readReqs                         892                       # Number of read requests accepted
system.mem_ctrls.writeReqs                          0                       # Number of write requests accepted
system.mem_ctrls.readBursts                       892                       # Number of DRAM read bursts, including those serviced by the write queue
system.mem_ctrls.writeBursts                        0                       # Number of DRAM write bursts, including those merged in the write queue
system.mem_ctrls.bytesReadDRAM                  57088                       # Total number of bytes read from DRAM
system.mem_ctrls.bytesReadWrQ                       0                       # Total number of bytes read from write queue
system.mem_ctrls.bytesWritten                       0                       # Total number of bytes written to DRAM
system.mem_ctrls.bytesReadSys                   57088                       # Total read bytes from the system interface side
system.mem_ctrls.bytesWrittenSys                    0                       # Total written bytes from the system interface side
system.mem_ctrls.servicedByWrQ                      0                       # Number of DRAM read bursts serviced by the write queue
system.mem_ctrls.mergedWrBursts                     0                       # Number of DRAM write bursts merged with an existing one
system.mem_ctrls.neitherReadNorWriteReqs            9                       # Number of requests that are neither read nor write
system.mem_ctrls.perBankRdBursts::0               117                       # Per bank write bursts
system.mem_ctrls.perBankRdBursts::1               122                       # Per bank write bursts
system.mem_ctrls.perBankRdBursts::2               133                       # Per bank write bursts
system.mem_ctrls.perBankRdBursts::3               189                       # Per bank write bursts
system.mem_ctrls.perBankRdBursts::4                36                       # Per bank write bursts
system.mem_ctrls.perBankRdBursts::5                17                       # Per bank write bursts
system.mem_ctrls.perBankRdBursts::6                81                       # Per bank write bursts
system.mem_ctrls.perBankRdBursts::7                31                       # Per bank write bursts
system.mem_ctrls.perBankRdBursts::8                14                       # Per bank write bursts
system.mem_ctrls.perBankRdBursts::9                10                       # Per bank write bursts
system.mem_ctrls.perBankRdBursts::10                0                       # Per bank write bursts
system.mem_ctrls.perBankRdBursts::11               12                       # Per bank write bursts
system.mem_ctrls.perBankRdBursts::12                6                       # Per bank write bursts
system.mem_ctrls.perBankRdBursts::13               33                       # Per bank write bursts
system.mem_ctrls.perBankRdBursts::14               38                       # Per bank write bursts
system.mem_ctrls.perBankRdBursts::15               53                       # Per bank write bursts
system.mem_ctrls.perBankWrBursts::0                 0                       # Per bank write bursts
system.mem_ctrls.perBankWrBursts::1                 0                       # Per bank write bursts
system.mem_ctrls.perBankWrBursts::2                 0                       # Per bank write bursts
system.mem_ctrls.perBankWrBursts::3                 0                       # Per bank write bursts
system.mem_ctrls.perBankWrBursts::4                 0                       # Per bank write bursts
system.mem_ctrls.perBankWrBursts::5                 0                       # Per bank write bursts
system.mem_ctrls.perBankWrBursts::6                 0                       # Per bank write bursts
system.mem_ctrls.perBankWrBursts::7                 0                       # Per bank write bursts
system.mem_ctrls.perBankWrBursts::8                 0                       # Per bank write bursts
system.mem_ctrls.perBankWrBursts::9                 0                       # Per bank write bursts
system.mem_ctrls.perBankWrBursts::10                0                       # Per bank write bursts
system.mem_ctrls.perBankWrBursts::11                0                       # Per bank write bursts
system.mem_ctrls.perBankWrBursts::12                0                       # Per bank write bursts
system.mem_ctrls.perBankWrBursts::13                0                       # Per bank write bursts
system.mem_ctrls.perBankWrBursts::14                0                       # Per bank write bursts
system.mem_ctrls.perBankWrBursts::15                0                       # Per bank write bursts
system.mem_ctrls.numRdRetry                         0                       # Number of times read queue was full causing retry
system.mem_ctrls.numWrRetry                         0                       # Number of times write queue was full causing retry
system.mem_ctrls.totGap                      50547500                       # Total gap between requests
system.mem_ctrls.readPktSize::0                     0                       # Read request sizes (log2)
system.mem_ctrls.readPktSize::1                     0                       # Read request sizes (log2)
system.mem_ctrls.readPktSize::2                     0                       # Read request sizes (log2)
system.mem_ctrls.readPktSize::3                     0                       # Read request sizes (log2)
system.mem_ctrls.readPktSize::4                     0                       # Read request sizes (log2)
system.mem_ctrls.readPktSize::5                     0                       # Read request sizes (log2)
system.mem_ctrls.readPktSize::6                   892                       # Read request sizes (log2)
system.mem_ctrls.writePktSize::0                    0                       # Write request sizes (log2)
system.mem_ctrls.writePktSize::1                    0                       # Write request sizes (log2)
system.mem_ctrls.writePktSize::2                    0                       # Write request sizes (log2)
system.mem_ctrls.writePktSize::3                    0                       # Write request sizes (log2)
system.mem_ctrls.writePktSize::4                    0                       # Write request sizes (log2)
system.mem_ctrls.writePktSize::5                    0                       # Write request sizes (log2)
system.mem_ctrls.writePktSize::6                    0                       # Write request sizes (log2)
system.mem_ctrls.rdQLenPdf::0                     488                       # What read queue length does an incoming req see
system.mem_ctrls.rdQLenPdf::1                     294                       # What read queue length does an incoming req see
system.mem_ctrls.rdQLenPdf::2                      75                       # What read queue length does an incoming req see
system.mem_ctrls.rdQLenPdf::3                      24                       # What read queue length does an incoming req see
system.mem_ctrls.rdQLenPdf::4                       8                       # What read queue length does an incoming req see
system.mem_ctrls.rdQLenPdf::5                       3                       # What read queue length does an incoming req see
system.mem_ctrls.rdQLenPdf::6                       0                       # What read queue length does an incoming req see
system.mem_ctrls.rdQLenPdf::7                       0                       # What read queue length does an incoming req see
system.mem_ctrls.rdQLenPdf::8                       0                       # What read queue length does an incoming req see
system.mem_ctrls.rdQLenPdf::9                       0                       # What read queue length does an incoming req see
system.mem_ctrls.rdQLenPdf::10                      0                       # What read queue length does an incoming req see
system.mem_ctrls.rdQLenPdf::11                      0                       # What read queue length does an incoming req see
system.mem_ctrls.rdQLenPdf::12                      0                       # What read queue length does an incoming req see
system.mem_ctrls.rdQLenPdf::13                      0                       # What read queue length does an incoming req see
system.mem_ctrls.rdQLenPdf::14                      0                       # What read queue length does an incoming req see
system.mem_ctrls.rdQLenPdf::15                      0                       # What read queue length does an incoming req see
system.mem_ctrls.rdQLenPdf::16                      0                       # What read queue length does an incoming req see
system.mem_ctrls.rdQLenPdf::17                      0                       # What read queue length does an incoming req see
system.mem_ctrls.rdQLenPdf::18                      0                       # What read queue length does an incoming req see
system.mem_ctrls.rdQLenPdf::19                      0                       # What read queue length does an incoming req see
system.mem_ctrls.rdQLenPdf::20                      0                       # What read queue length does an incoming req see
system.mem_ctrls.rdQLenPdf::21                      0                       # What read queue length does an incoming req see
system.mem_ctrls.rdQLenPdf::22                      0                       # What read queue length does an incoming req see
system.mem_ctrls.rdQLenPdf::23                      0                       # What read queue length does an incoming req see
system.mem_ctrls.rdQLenPdf::24                      0                       # What read queue length does an incoming req see
system.mem_ctrls.rdQLenPdf::25                      0                       # What read queue length does an incoming req see
system.mem_ctrls.rdQLenPdf::26                      0                       # What read queue length does an incoming req see
system.mem_ctrls.rdQLenPdf::27                      0                       # What read queue length does an incoming req see
system.mem_ctrls.rdQLenPdf::28                      0                       # What read queue length does an incoming req see
system.mem_ctrls.rdQLenPdf::29                      0                       # What read queue length does an incoming req see
system.mem_ctrls.rdQLenPdf::30                      0                       # What read queue length does an incoming req see
system.mem_ctrls.rdQLenPdf::31                      0                       # What read queue length does an incoming req see
system.mem_ctrls.wrQLenPdf::0                       0                       # What write queue length does an incoming req see
system.mem_ctrls.wrQLenPdf::1                       0                       # What write queue length does an incoming req see
system.mem_ctrls.wrQLenPdf::2                       0                       # What write queue length does an incoming req see
system.mem_ctrls.wrQLenPdf::3                       0                       # What write queue length does an incoming req see
system.mem_ctrls.wrQLenPdf::4                       0                       # What write queue length does an incoming req see
system.mem_ctrls.wrQLenPdf::5                       0                       # What write queue length does an incoming req see
system.mem_ctrls.wrQLenPdf::6                       0                       # What write queue length does an incoming req see
system.mem_ctrls.wrQLenPdf::7                       0                       # What write queue length does an incoming req see
system.mem_ctrls.wrQLenPdf::8                       0                       # What write queue length does an incoming req see
system.mem_ctrls.wrQLenPdf::9                       0                       # What write queue length does an incoming req see
system.mem_ctrls.wrQLenPdf::10                      0                       # What write queue length does an incoming req see
system.mem_ctrls.wrQLenPdf::11                      0                       # What write queue length does an incoming req see
system.mem_ctrls.wrQLenPdf::12                      0                       # What write queue length does an incoming req see
system.mem_ctrls.wrQLenPdf::13                      0                       # What write queue length does an incoming req see
system.mem_ctrls.wrQLenPdf::14                      0                       # What write queue length does an incoming req see
system.mem_ctrls.wrQLenPdf::15                      0                       # What write queue length does an incoming req see
system.mem_ctrls.wrQLenPdf::16                      0                       # What write queue length does an incoming req see
system.mem_ctrls.wrQLenPdf::17                      0                       # What write queue length does an incoming req see
system.mem_ctrls.wrQLenPdf::18                      0                       # What write queue length does an incoming req see
system.mem_ctrls.wrQLenPdf::19                      0                       # What write queue length does an incoming req see
system.mem_ctrls.wrQLenPdf::20                      0                       # What write queue length does an incoming req see
system.mem_ctrls.wrQLenPdf::21                      0                       # What write queue length does an incoming req see
system.mem_ctrls.wrQLenPdf::22                      0                       # What write queue length does an incoming req see
system.mem_ctrls.wrQLenPdf::23                      0                       # What write queue length does an incoming req see
system.mem_ctrls.wrQLenPdf::24                      0                       # What write queue length does an incoming req see
system.mem_ctrls.wrQLenPdf::25                      0                       # What write queue length does an incoming req see
system.mem_ctrls.wrQLenPdf::26                      0                       # What write queue length does an incoming req see
system.mem_ctrls.wrQLenPdf::27                      0                       # What write queue length does an incoming req see
system.mem_ctrls.wrQLenPdf::28                      0                       # What write queue length does an incoming req see
system.mem_ctrls.wrQLenPdf::29                      0                       # What write queue length does an incoming req see
system.mem_ctrls.wrQLenPdf::30                      0                       # What write queue length does an incoming req see
system.mem_ctrls.wrQLenPdf::31                      0                       # What write queue length does an incoming req see
system.mem_ctrls.wrQLenPdf::32                      0                       # What write queue length does an incoming req see
system.mem_ctrls.wrQLenPdf::33                      0                       # What write queue length does an incoming req see
system.mem_ctrls.wrQLenPdf::34                      0                       # What write queue length does an incoming req see
system.mem_ctrls.wrQLenPdf::35                      0                       # What write queue length does an incoming req see
system.mem_ctrls.wrQLenPdf::36                      0                       # What write queue length does an incoming req see
system.mem_ctrls.wrQLenPdf::37                      0                       # What write queue length does an incoming req see
system.mem_ctrls.wrQLenPdf::38                      0                       # What write queue length does an incoming req see
system.mem_ctrls.wrQLenPdf::39                      0                       # What write queue length does an incoming req see
system.mem_ctrls.wrQLenPdf::40                      0                       # What write queue length does an incoming req see
system.mem_ctrls.wrQLenPdf::41                      0                       # What write queue length does an incoming req see
system.mem_ctrls.wrQLenPdf::42                      0                       # What write queue length does an incoming req see
system.mem_ctrls.wrQLenPdf::43                      0                       # What write queue length does an incoming req see
system.mem_ctrls.wrQLenPdf::44                      0                       # What write queue length does an incoming req see
system.mem_ctrls.wrQLenPdf::45                      0                       # What write queue length does an incoming req see
system.mem_ctrls.wrQLenPdf::46                      0                       # What write queue length does an incoming req see
system.mem_ctrls.wrQLenPdf::47                      0                       # What write queue length does an incoming req see
system.mem_ctrls.wrQLenPdf::48                      0                       # What write queue length does an incoming req see
system.mem_ctrls.wrQLenPdf::49                      0                       # What write queue length does an incoming req see
system.mem_ctrls.wrQLenPdf::50                      0                       # What write queue length does an incoming req see
system.mem_ctrls.wrQLenPdf::51                      0                       # What write queue length does an incoming req see
system.mem_ctrls.wrQLenPdf::52                      0                       # What write queue length does an incoming req see
system.mem_ctrls.wrQLenPdf::53                      0                       # What write queue length does an incoming req see
system.mem_ctrls.wrQLenPdf::54                      0                       # What write queue length does an incoming req see
system.mem_ctrls.wrQLenPdf::55                      0                       # What write queue length does an incoming req see
system.mem_ctrls.wrQLenPdf::56                      0                       # What write queue length does an incoming req see
system.mem_ctrls.wrQLenPdf::57                      0                       # What write queue length does an incoming req see
system.mem_ctrls.wrQLenPdf::58                      0                       # What write queue length does an incoming req see
system.mem_ctrls.wrQLenPdf::59                      0                       # What write queue length does an incoming req see
system.mem_ctrls.wrQLenPdf::60                      0                       # What write queue length does an incoming req see
system.mem_ctrls.wrQLenPdf::61                      0                       # What write queue length does an incoming req see
system.mem_ctrls.wrQLenPdf::62                      0                       # What write queue length does an incoming req see
system.mem_ctrls.wrQLenPdf::63                      0                       # What write queue length does an incoming req see
system.mem_ctrls.bytesPerActivate::samples          180                       # Bytes accessed per row activation
system.mem_ctrls.bytesPerActivate::mean    307.555556                       # Bytes accessed per row activation
system.mem_ctrls.bytesPerActivate::gmean   185.194794                       # Bytes accessed per row activation
system.mem_ctrls.bytesPerActivate::stdev   319.541820                       # Bytes accessed per row activation
system.mem_ctrls.bytesPerActivate::0-127           65     36.11%     36.11% # Bytes accessed per row activation
system.mem_ctrls.bytesPerActivate::128-255           39     21.67%     57.78% # Bytes accessed per row activation
system.mem_ctrls.bytesPerActivate::256-383           26     14.44%     72.22% # Bytes accessed per row activation
system.mem_ctrls.bytesPerActivate::384-511           10      5.56%     77.78% # Bytes accessed per row activation
system.mem_ctrls.bytesPerActivate::512-639            6      3.33%     81.11% # Bytes accessed per row activation
system.mem_ctrls.bytesPerActivate::640-767            8      4.44%     85.56% # Bytes accessed per row activation
system.mem_ctrls.bytesPerActivate::768-895            4      2.22%     87.78% # Bytes accessed per row activation
system.mem_ctrls.bytesPerActivate::896-1023            4      2.22%     90.00% # Bytes accessed per row activation
system.mem_ctrls.bytesPerActivate::1024-1151           18     10.00%    100.00% # Bytes accessed per row activation
system.mem_ctrls.bytesPerActivate::total          180                       # Bytes accessed per row activation
system.mem_ctrls.totQLat                      8087000                       # Total ticks spent queuing
system.mem_ctrls.totMemAccLat                24812000                       # Total ticks spent from burst creation until serviced by the DRAM
system.mem_ctrls.totBusLat                    4460000                       # Total ticks spent in databus transfers
system.mem_ctrls.avgQLat                      9066.14                       # Average queueing delay per DRAM burst
system.mem_ctrls.avgBusLat                    5000.00                       # Average bus latency per DRAM burst
system.mem_ctrls.avgMemAccLat                27816.14                       # Average memory access latency per DRAM burst
system.mem_ctrls.avgRdBW                      1128.42                       # Average DRAM read bandwidth in MiByte/s
system.mem_ctrls.avgWrBW                         0.00                       # Average achieved write bandwidth in MiByte/s
system.mem_ctrls.avgRdBWSys                   1128.42                       # Average system read bandwidth in MiByte/s
system.mem_ctrls.avgWrBWSys                      0.00                       # Average system write bandwidth in MiByte/s
system.mem_ctrls.peakBW                      12800.00                       # Theoretical peak bandwidth in MiByte/s
system.mem_ctrls.busUtil                         8.82                       # Data bus utilization in percentage
system.mem_ctrls.busUtilRead                     8.82                       # Data bus utilization in percentage for reads
system.mem_ctrls.busUtilWrite                    0.00                       # Data bus utilization in percentage for writes
system.mem_ctrls.avgRdQLen                       1.64                       # Average read queue length when enqueuing
system.mem_ctrls.avgWrQLen                       0.00                       # Average write queue length when enqueuing
system.mem_ctrls.readRowHits                      702                       # Number of row buffer hits during reads
system.mem_ctrls.writeRowHits                       0                       # Number of row buffer hits during writes
system.mem_ctrls.readRowHitRate                 78.70                       # Row buffer hit rate for reads
system.mem_ctrls.writeRowHitRate                  nan                       # Row buffer hit rate for writes
system.mem_ctrls.avgGap                      56667.60                       # Average gap between requests
system.mem_ctrls.pageHitRate                    78.70                       # Row buffer hit rate, read and write combined
system.mem_ctrls_0.actEnergy                  1126440                       # Energy for activate commands per rank (pJ)
system.mem_ctrls_0.preEnergy                   614625                       # Energy for precharge commands per rank (pJ)
system.mem_ctrls_0.readEnergy                 5499000                       # Energy for read commands per rank (pJ)
system.mem_ctrls_0.writeEnergy                      0                       # Energy for write commands per rank (pJ)
system.mem_ctrls_0.refreshEnergy              3051360                       # Energy for refresh commands per rank (pJ)
system.mem_ctrls_0.actBackEnergy             31894065                       # Energy for active background per rank (pJ)
system.mem_ctrls_0.preBackEnergy               209250                       # Energy for precharge background per rank (pJ)
system.mem_ctrls_0.totalEnergy               42394740                       # Total energy per rank (pJ)
system.mem_ctrls_0.averagePower            902.447768                       # Core power per rank (mW)
system.mem_ctrls_0.memoryStateTime::IDLE       384250                       # Time in different power states
system.mem_ctrls_0.memoryStateTime::REF       1560000                       # Time in different power states
system.mem_ctrls_0.memoryStateTime::PRE_PDN            0                       # Time in different power states
system.mem_ctrls_0.memoryStateTime::ACT      45330750                       # Time in different power states
system.mem_ctrls_0.memoryStateTime::ACT_PDN            0                       # Time in different power states
system.mem_ctrls_1.actEnergy                   166320                       # Energy for activate commands per rank (pJ)
system.mem_ctrls_1.preEnergy                    90750                       # Energy for precharge commands per rank (pJ)
system.mem_ctrls_1.readEnergy                 1006200                       # Energy for read commands per rank (pJ)
system.mem_ctrls_1.writeEnergy                      0                       # Energy for write commands per rank (pJ)
system.mem_ctrls_1.refreshEnergy              3051360                       # Energy for refresh commands per rank (pJ)
system.mem_ctrls_1.actBackEnergy             20284875                       # Energy for active background per rank (pJ)
system.mem_ctrls_1.preBackEnergy             10384500                       # Energy for precharge background per rank (pJ)
system.mem_ctrls_1.totalEnergy               34984005                       # Total energy per rank (pJ)
system.mem_ctrls_1.averagePower            744.915067                       # Core power per rank (mW)
system.mem_ctrls_1.memoryStateTime::IDLE     18685250                       # Time in different power states
system.mem_ctrls_1.memoryStateTime::REF       1560000                       # Time in different power states
system.mem_ctrls_1.memoryStateTime::PRE_PDN            0                       # Time in different power states
system.mem_ctrls_1.memoryStateTime::ACT      28249250                       # Time in different power states
system.mem_ctrls_1.memoryStateTime::ACT_PDN            0                       # Time in different power states
system.cpu0.branchPred.lookups                  10645                       # Number of BP lookups
system.cpu0.branchPred.condPredicted             8258                       # Number of conditional branches predicted
system.cpu0.branchPred.condIncorrect             1034                       # Number of conditional branches incorrect
system.cpu0.branchPred.BTBLookups                8522                       # Number of BTB lookups
system.cpu0.branchPred.BTBHits                   4990                       # Number of BTB hits
system.cpu0.branchPred.BTBCorrect                   0                       # Number of correct BTB predictions (this stat may not work properly.
system.cpu0.branchPred.BTBHitPct            58.554330                       # BTB Hit Percentage
system.cpu0.branchPred.usedRAS                    859                       # Number of times the RAS was used to get a target.
system.cpu0.branchPred.RASInCorrect                14                       # Number of incorrect RAS predictions.
system.cpu_voltage_domain.voltage                   1                       # Voltage in Volts
system.cpu_clk_domain.clock                       500                       # Clock period in ticks
system.cpu0.dstage2_mmu.stage2_tlb.walker.walks            0                       # Table walker walks requested
system.cpu0.dstage2_mmu.stage2_tlb.walker.walkRequestOrigin_Requested::Data            0                       # Table walker requests started/completed, data/inst
system.cpu0.dstage2_mmu.stage2_tlb.walker.walkRequestOrigin_Requested::Inst            0                       # Table walker requests started/completed, data/inst
system.cpu0.dstage2_mmu.stage2_tlb.walker.walkRequestOrigin_Requested::total            0                       # Table walker requests started/completed, data/inst
system.cpu0.dstage2_mmu.stage2_tlb.walker.walkRequestOrigin_Completed::Data            0                       # Table walker requests started/completed, data/inst
system.cpu0.dstage2_mmu.stage2_tlb.walker.walkRequestOrigin_Completed::Inst            0                       # Table walker requests started/completed, data/inst
system.cpu0.dstage2_mmu.stage2_tlb.walker.walkRequestOrigin_Completed::total            0                       # Table walker requests started/completed, data/inst
system.cpu0.dstage2_mmu.stage2_tlb.walker.walkRequestOrigin::total            0                       # Table walker requests started/completed, data/inst
system.cpu0.dstage2_mmu.stage2_tlb.inst_hits            0                       # ITB inst hits
system.cpu0.dstage2_mmu.stage2_tlb.inst_misses            0                       # ITB inst misses
system.cpu0.dstage2_mmu.stage2_tlb.read_hits            0                       # DTB read hits
system.cpu0.dstage2_mmu.stage2_tlb.read_misses            0                       # DTB read misses
system.cpu0.dstage2_mmu.stage2_tlb.write_hits            0                       # DTB write hits
system.cpu0.dstage2_mmu.stage2_tlb.write_misses            0                       # DTB write misses
system.cpu0.dstage2_mmu.stage2_tlb.flush_tlb            0                       # Number of times complete TLB was flushed
system.cpu0.dstage2_mmu.stage2_tlb.flush_tlb_mva            0                       # Number of times TLB was flushed by MVA
system.cpu0.dstage2_mmu.stage2_tlb.flush_tlb_mva_asid            0                       # Number of times TLB was flushed by MVA & ASID
system.cpu0.dstage2_mmu.stage2_tlb.flush_tlb_asid            0                       # Number of times TLB was flushed by ASID
system.cpu0.dstage2_mmu.stage2_tlb.flush_entries            0                       # Number of entries that have been flushed from TLB
system.cpu0.dstage2_mmu.stage2_tlb.align_faults            0                       # Number of TLB faults due to alignment restrictions
system.cpu0.dstage2_mmu.stage2_tlb.prefetch_faults            0                       # Number of TLB faults due to prefetch
system.cpu0.dstage2_mmu.stage2_tlb.domain_faults            0                       # Number of TLB faults due to domain restrictions
system.cpu0.dstage2_mmu.stage2_tlb.perms_faults            0                       # Number of TLB faults due to permissions restrictions
system.cpu0.dstage2_mmu.stage2_tlb.read_accesses            0                       # DTB read accesses
system.cpu0.dstage2_mmu.stage2_tlb.write_accesses            0                       # DTB write accesses
system.cpu0.dstage2_mmu.stage2_tlb.inst_accesses            0                       # ITB inst accesses
system.cpu0.dstage2_mmu.stage2_tlb.hits             0                       # DTB hits
system.cpu0.dstage2_mmu.stage2_tlb.misses            0                       # DTB misses
system.cpu0.dstage2_mmu.stage2_tlb.accesses            0                       # DTB accesses
system.cpu0.dtb.walker.walks                        0                       # Table walker walks requested
system.cpu0.dtb.walker.walkRequestOrigin_Requested::Data            0                       # Table walker requests started/completed, data/inst
system.cpu0.dtb.walker.walkRequestOrigin_Requested::Inst            0                       # Table walker requests started/completed, data/inst
system.cpu0.dtb.walker.walkRequestOrigin_Requested::total            0                       # Table walker requests started/completed, data/inst
system.cpu0.dtb.walker.walkRequestOrigin_Completed::Data            0                       # Table walker requests started/completed, data/inst
system.cpu0.dtb.walker.walkRequestOrigin_Completed::Inst            0                       # Table walker requests started/completed, data/inst
system.cpu0.dtb.walker.walkRequestOrigin_Completed::total            0                       # Table walker requests started/completed, data/inst
system.cpu0.dtb.walker.walkRequestOrigin::total            0                       # Table walker requests started/completed, data/inst
system.cpu0.dtb.inst_hits                           0                       # ITB inst hits
system.cpu0.dtb.inst_misses                         0                       # ITB inst misses
system.cpu0.dtb.read_hits                           0                       # DTB read hits
system.cpu0.dtb.read_misses                         0                       # DTB read misses
system.cpu0.dtb.write_hits                          0                       # DTB write hits
system.cpu0.dtb.write_misses                        0                       # DTB write misses
system.cpu0.dtb.flush_tlb                           0                       # Number of times complete TLB was flushed
system.cpu0.dtb.flush_tlb_mva                       0                       # Number of times TLB was flushed by MVA
system.cpu0.dtb.flush_tlb_mva_asid                  0                       # Number of times TLB was flushed by MVA & ASID
system.cpu0.dtb.flush_tlb_asid                      0                       # Number of times TLB was flushed by ASID
system.cpu0.dtb.flush_entries                       0                       # Number of entries that have been flushed from TLB
system.cpu0.dtb.align_faults                        0                       # Number of TLB faults due to alignment restrictions
system.cpu0.dtb.prefetch_faults                     0                       # Number of TLB faults due to prefetch
system.cpu0.dtb.domain_faults                       0                       # Number of TLB faults due to domain restrictions
system.cpu0.dtb.perms_faults                        0                       # Number of TLB faults due to permissions restrictions
system.cpu0.dtb.read_accesses                       0                       # DTB read accesses
system.cpu0.dtb.write_accesses                      0                       # DTB write accesses
system.cpu0.dtb.inst_accesses                       0                       # ITB inst accesses
system.cpu0.dtb.hits                                0                       # DTB hits
system.cpu0.dtb.misses                              0                       # DTB misses
system.cpu0.dtb.accesses                            0                       # DTB accesses
system.cpu0.istage2_mmu.stage2_tlb.walker.walks            0                       # Table walker walks requested
system.cpu0.istage2_mmu.stage2_tlb.walker.walkRequestOrigin_Requested::Data            0                       # Table walker requests started/completed, data/inst
system.cpu0.istage2_mmu.stage2_tlb.walker.walkRequestOrigin_Requested::Inst            0                       # Table walker requests started/completed, data/inst
system.cpu0.istage2_mmu.stage2_tlb.walker.walkRequestOrigin_Requested::total            0                       # Table walker requests started/completed, data/inst
system.cpu0.istage2_mmu.stage2_tlb.walker.walkRequestOrigin_Completed::Data            0                       # Table walker requests started/completed, data/inst
system.cpu0.istage2_mmu.stage2_tlb.walker.walkRequestOrigin_Completed::Inst            0                       # Table walker requests started/completed, data/inst
system.cpu0.istage2_mmu.stage2_tlb.walker.walkRequestOrigin_Completed::total            0                       # Table walker requests started/completed, data/inst
system.cpu0.istage2_mmu.stage2_tlb.walker.walkRequestOrigin::total            0                       # Table walker requests started/completed, data/inst
system.cpu0.istage2_mmu.stage2_tlb.inst_hits            0                       # ITB inst hits
system.cpu0.istage2_mmu.stage2_tlb.inst_misses            0                       # ITB inst misses
system.cpu0.istage2_mmu.stage2_tlb.read_hits            0                       # DTB read hits
system.cpu0.istage2_mmu.stage2_tlb.read_misses            0                       # DTB read misses
system.cpu0.istage2_mmu.stage2_tlb.write_hits            0                       # DTB write hits
system.cpu0.istage2_mmu.stage2_tlb.write_misses            0                       # DTB write misses
system.cpu0.istage2_mmu.stage2_tlb.flush_tlb            0                       # Number of times complete TLB was flushed
system.cpu0.istage2_mmu.stage2_tlb.flush_tlb_mva            0                       # Number of times TLB was flushed by MVA
system.cpu0.istage2_mmu.stage2_tlb.flush_tlb_mva_asid            0                       # Number of times TLB was flushed by MVA & ASID
system.cpu0.istage2_mmu.stage2_tlb.flush_tlb_asid            0                       # Number of times TLB was flushed by ASID
system.cpu0.istage2_mmu.stage2_tlb.flush_entries            0                       # Number of entries that have been flushed from TLB
system.cpu0.istage2_mmu.stage2_tlb.align_faults            0                       # Number of TLB faults due to alignment restrictions
system.cpu0.istage2_mmu.stage2_tlb.prefetch_faults            0                       # Number of TLB faults due to prefetch
system.cpu0.istage2_mmu.stage2_tlb.domain_faults            0                       # Number of TLB faults due to domain restrictions
system.cpu0.istage2_mmu.stage2_tlb.perms_faults            0                       # Number of TLB faults due to permissions restrictions
system.cpu0.istage2_mmu.stage2_tlb.read_accesses            0                       # DTB read accesses
system.cpu0.istage2_mmu.stage2_tlb.write_accesses            0                       # DTB write accesses
system.cpu0.istage2_mmu.stage2_tlb.inst_accesses            0                       # ITB inst accesses
system.cpu0.istage2_mmu.stage2_tlb.hits             0                       # DTB hits
system.cpu0.istage2_mmu.stage2_tlb.misses            0                       # DTB misses
system.cpu0.istage2_mmu.stage2_tlb.accesses            0                       # DTB accesses
system.cpu0.itb.walker.walks                        0                       # Table walker walks requested
system.cpu0.itb.walker.walkRequestOrigin_Requested::Data            0                       # Table walker requests started/completed, data/inst
system.cpu0.itb.walker.walkRequestOrigin_Requested::Inst            0                       # Table walker requests started/completed, data/inst
system.cpu0.itb.walker.walkRequestOrigin_Requested::total            0                       # Table walker requests started/completed, data/inst
system.cpu0.itb.walker.walkRequestOrigin_Completed::Data            0                       # Table walker requests started/completed, data/inst
system.cpu0.itb.walker.walkRequestOrigin_Completed::Inst            0                       # Table walker requests started/completed, data/inst
system.cpu0.itb.walker.walkRequestOrigin_Completed::total            0                       # Table walker requests started/completed, data/inst
system.cpu0.itb.walker.walkRequestOrigin::total            0                       # Table walker requests started/completed, data/inst
system.cpu0.itb.inst_hits                           0                       # ITB inst hits
system.cpu0.itb.inst_misses                         0                       # ITB inst misses
system.cpu0.itb.read_hits                           0                       # DTB read hits
system.cpu0.itb.read_misses                         0                       # DTB read misses
system.cpu0.itb.write_hits                          0                       # DTB write hits
system.cpu0.itb.write_misses                        0                       # DTB write misses
system.cpu0.itb.flush_tlb                           0                       # Number of times complete TLB was flushed
system.cpu0.itb.flush_tlb_mva                       0                       # Number of times TLB was flushed by MVA
system.cpu0.itb.flush_tlb_mva_asid                  0                       # Number of times TLB was flushed by MVA & ASID
system.cpu0.itb.flush_tlb_asid                      0                       # Number of times TLB was flushed by ASID
system.cpu0.itb.flush_entries                       0                       # Number of entries that have been flushed from TLB
system.cpu0.itb.align_faults                        0                       # Number of TLB faults due to alignment restrictions
system.cpu0.itb.prefetch_faults                     0                       # Number of TLB faults due to prefetch
system.cpu0.itb.domain_faults                       0                       # Number of TLB faults due to domain restrictions
system.cpu0.itb.perms_faults                        0                       # Number of TLB faults due to permissions restrictions
system.cpu0.itb.read_accesses                       0                       # DTB read accesses
system.cpu0.itb.write_accesses                      0                       # DTB write accesses
system.cpu0.itb.inst_accesses                       0                       # ITB inst accesses
system.cpu0.itb.hits                                0                       # DTB hits
system.cpu0.itb.misses                              0                       # DTB misses
system.cpu0.itb.accesses                            0                       # DTB accesses
system.cpu0.workload.num_syscalls                  58                       # Number of system calls
system.cpu0.numCycles                          101183                       # number of cpu cycles simulated
system.cpu0.numWorkItemsStarted                     0                       # number of work items this cpu started
system.cpu0.numWorkItemsCompleted                   0                       # number of work items this cpu completed
system.cpu0.fetch.icacheStallCycles             22957                       # Number of cycles fetch is stalled on an Icache miss
system.cpu0.fetch.Insts                         72319                       # Number of instructions fetch has processed
system.cpu0.fetch.Branches                      10645                       # Number of branches that fetch encountered
system.cpu0.fetch.predictedBranches              5849                       # Number of branches that fetch has predicted taken
system.cpu0.fetch.Cycles                        35116                       # Number of cycles fetch has run and was not squashing or blocked
system.cpu0.fetch.SquashCycles                   2161                       # Number of cycles fetch has spent squashing
system.cpu0.fetch.PendingTrapStallCycles            4                       # Number of stall cycles due to pending traps
system.cpu0.fetch.CacheLines                     9190                       # Number of cache lines fetched
system.cpu0.fetch.IcacheSquashes                  635                       # Number of outstanding Icache misses that were squashed
system.cpu0.fetch.rateDist::samples             59157                       # Number of instructions fetched each cycle (Total)
system.cpu0.fetch.rateDist::mean             1.377707                       # Number of instructions fetched each cycle (Total)
system.cpu0.fetch.rateDist::stdev            2.717702                       # Number of instructions fetched each cycle (Total)
system.cpu0.fetch.rateDist::underflows              0      0.00%      0.00% # Number of instructions fetched each cycle (Total)
system.cpu0.fetch.rateDist::0                   44695     75.55%     75.55% # Number of instructions fetched each cycle (Total)
system.cpu0.fetch.rateDist::1                    1222      2.07%     77.62% # Number of instructions fetched each cycle (Total)
system.cpu0.fetch.rateDist::2                    1431      2.42%     80.04% # Number of instructions fetched each cycle (Total)
system.cpu0.fetch.rateDist::3                     952      1.61%     81.65% # Number of instructions fetched each cycle (Total)
system.cpu0.fetch.rateDist::4                    1333      2.25%     83.90% # Number of instructions fetched each cycle (Total)
system.cpu0.fetch.rateDist::5                     789      1.33%     85.23% # Number of instructions fetched each cycle (Total)
system.cpu0.fetch.rateDist::6                    1269      2.15%     87.38% # Number of instructions fetched each cycle (Total)
system.cpu0.fetch.rateDist::7                    2058      3.48%     90.86% # Number of instructions fetched each cycle (Total)
system.cpu0.fetch.rateDist::8                    5408      9.14%    100.00% # Number of instructions fetched each cycle (Total)
system.cpu0.fetch.rateDist::overflows               0      0.00%    100.00% # Number of instructions fetched each cycle (Total)
system.cpu0.fetch.rateDist::min_value               0                       # Number of instructions fetched each cycle (Total)
system.cpu0.fetch.rateDist::max_value               8                       # Number of instructions fetched each cycle (Total)
system.cpu0.fetch.rateDist::total               59157                       # Number of instructions fetched each cycle (Total)
system.cpu0.fetch.branchRate                 0.105205                       # Number of branch fetches per cycle
system.cpu0.fetch.rate                       0.714735                       # Number of inst fetches per cycle
system.cpu0.decode.IdleCycles                   16093                       # Number of cycles decode is idle
system.cpu0.decode.BlockedCycles                31256                       # Number of cycles decode is blocked
system.cpu0.decode.RunCycles                     7776                       # Number of cycles decode is running
system.cpu0.decode.UnblockCycles                 3254                       # Number of cycles decode is unblocking
system.cpu0.decode.SquashCycles                   778                       # Number of cycles decode is squashing
system.cpu0.decode.BranchResolved                1077                       # Number of times decode resolved a branch
system.cpu0.decode.BranchMispred                  314                       # Number of times decode detected a branch misprediction
system.cpu0.decode.DecodedInsts                 71130                       # Number of instructions handled by decode
system.cpu0.decode.SquashedInsts                 1156                       # Number of squashed instructions handled by decode
system.cpu0.rename.SquashCycles                   778                       # Number of cycles rename is squashing
system.cpu0.rename.IdleCycles                   17536                       # Number of cycles rename is idle
system.cpu0.rename.BlockCycles                   3939                       # Number of cycles rename is blocking
system.cpu0.rename.serializeStallCycles          8301                       # count of cycles rename stalled for serializing inst
system.cpu0.rename.RunCycles                     9517                       # Number of cycles rename is running
system.cpu0.rename.UnblockCycles                19086                       # Number of cycles rename is unblocking
system.cpu0.rename.RenamedInsts                 69051                       # Number of instructions processed by rename
system.cpu0.rename.ROBFullEvents                    2                       # Number of times rename has blocked due to ROB full
system.cpu0.rename.IQFullEvents                  6051                       # Number of times rename has blocked due to IQ full
system.cpu0.rename.LQFullEvents                   102                       # Number of times rename has blocked due to LQ full
system.cpu0.rename.SQFullEvents                 12503                       # Number of times rename has blocked due to SQ full
system.cpu0.rename.RenamedOperands              78668                       # Number of destination operands rename has renamed
system.cpu0.rename.RenameLookups               330066                       # Number of register rename lookups that rename has made
system.cpu0.rename.int_rename_lookups           95423                       # Number of integer rename lookups
system.cpu0.rename.fp_rename_lookups               22                       # Number of floating rename lookups
system.cpu0.rename.CommittedMaps                50926                       # Number of HB maps that are committed
system.cpu0.rename.UndoneMaps                   27742                       # Number of HB maps that are undone due to squashing
system.cpu0.rename.serializingInsts               136                       # count of serializing insts renamed
system.cpu0.rename.tempSerializingInsts           135                       # count of temporary serializing insts renamed
system.cpu0.rename.skidInsts                    15853                       # count of insts added to the skid buffer
system.cpu0.memDep0.insertedLoads               11599                       # Number of loads inserted to the mem dependence unit.
system.cpu0.memDep0.insertedStores               8647                       # Number of stores inserted to the mem dependence unit.
system.cpu0.memDep0.conflictingLoads              629                       # Number of conflicting loads.
system.cpu0.memDep0.conflictingStores             427                       # Number of conflicting stores.
system.cpu0.iq.iqInstsAdded                     65890                       # Number of instructions added to the IQ (excludes non-spec)
system.cpu0.iq.iqNonSpecInstsAdded                271                       # Number of non-speculative instructions added to the IQ
system.cpu0.iq.iqInstsIssued                    49094                       # Number of instructions issued
system.cpu0.iq.iqSquashedInstsIssued             2088                       # Number of squashed instructions issued
system.cpu0.iq.iqSquashedInstsExamined          21664                       # Number of squashed instructions iterated over during squash; mainly for profiling
system.cpu0.iq.iqSquashedOperandsExamined        83585                       # Number of squashed operands that are examined and possibly removed from graph
system.cpu0.iq.iqSquashedNonSpecRemoved            83                       # Number of squashed non-spec instructions that were removed
system.cpu0.iq.issued_per_cycle::samples        59157                       # Number of insts issued each cycle
system.cpu0.iq.issued_per_cycle::mean        0.829893                       # Number of insts issued each cycle
system.cpu0.iq.issued_per_cycle::stdev       0.959023                       # Number of insts issued each cycle
system.cpu0.iq.issued_per_cycle::underflows            0      0.00%      0.00% # Number of insts issued each cycle
system.cpu0.iq.issued_per_cycle::0              33091     55.94%     55.94% # Number of insts issued each cycle
system.cpu0.iq.issued_per_cycle::1               3038      5.14%     61.07% # Number of insts issued each cycle
system.cpu0.iq.issued_per_cycle::2              23028     38.93%    100.00% # Number of insts issued each cycle
system.cpu0.iq.issued_per_cycle::overflows            0      0.00%    100.00% # Number of insts issued each cycle
system.cpu0.iq.issued_per_cycle::min_value            0                       # Number of insts issued each cycle
system.cpu0.iq.issued_per_cycle::max_value            2                       # Number of insts issued each cycle
system.cpu0.iq.issued_per_cycle::total          59157                       # Number of insts issued each cycle
system.cpu0.iq.fu_full::No_OpClass                  0                       # attempts to use FU when none available
system.cpu0.iq.fu_full::IntAlu                      0                       # attempts to use FU when none available
system.cpu0.iq.fu_full::IntMult                     0                       # attempts to use FU when none available
system.cpu0.iq.fu_full::IntDiv                      0                       # attempts to use FU when none available
system.cpu0.iq.fu_full::FloatAdd                    0                       # attempts to use FU when none available
system.cpu0.iq.fu_full::FloatCmp                    0                       # attempts to use FU when none available
system.cpu0.iq.fu_full::FloatCvt                    0                       # attempts to use FU when none available
system.cpu0.iq.fu_full::FloatMult                   0                       # attempts to use FU when none available
system.cpu0.iq.fu_full::FloatDiv                    0                       # attempts to use FU when none available
system.cpu0.iq.fu_full::FloatSqrt                   0                       # attempts to use FU when none available
system.cpu0.iq.fu_full::SimdAdd                     0                       # attempts to use FU when none available
system.cpu0.iq.fu_full::SimdAddAcc                  0                       # attempts to use FU when none available
system.cpu0.iq.fu_full::SimdAlu                     0                       # attempts to use FU when none available
system.cpu0.iq.fu_full::SimdCmp                     0                       # attempts to use FU when none available
system.cpu0.iq.fu_full::SimdCvt                     0                       # attempts to use FU when none available
system.cpu0.iq.fu_full::SimdMisc                    0                       # attempts to use FU when none available
system.cpu0.iq.fu_full::SimdMult                    0                       # attempts to use FU when none available
system.cpu0.iq.fu_full::SimdMultAcc                 0                       # attempts to use FU when none available
system.cpu0.iq.fu_full::SimdShift                   0                       # attempts to use FU when none available
system.cpu0.iq.fu_full::SimdShiftAcc                0                       # attempts to use FU when none available
system.cpu0.iq.fu_full::SimdSqrt                    0                       # attempts to use FU when none available
system.cpu0.iq.fu_full::SimdFloatAdd                0                       # attempts to use FU when none available
system.cpu0.iq.fu_full::SimdFloatAlu                0                       # attempts to use FU when none available
system.cpu0.iq.fu_full::SimdFloatCmp                0                       # attempts to use FU when none available
system.cpu0.iq.fu_full::SimdFloatCvt                0                       # attempts to use FU when none available
system.cpu0.iq.fu_full::SimdFloatDiv                0                       # attempts to use FU when none available
system.cpu0.iq.fu_full::SimdFloatMisc               0                       # attempts to use FU when none available
system.cpu0.iq.fu_full::SimdFloatMult               0                       # attempts to use FU when none available
system.cpu0.iq.fu_full::SimdFloatMultAcc            0                       # attempts to use FU when none available
system.cpu0.iq.fu_full::SimdFloatSqrt               0                       # attempts to use FU when none available
system.cpu0.iq.fu_full::MemRead                     0                       # attempts to use FU when none available
system.cpu0.iq.fu_full::MemWrite                    0                       # attempts to use FU when none available
system.cpu0.iq.fu_full::IprAccess                   0                       # attempts to use FU when none available
system.cpu0.iq.fu_full::InstPrefetch                0                       # attempts to use FU when none available
system.cpu0.iq.FU_type_0::No_OpClass                0      0.00%      0.00% # Type of FU issued
system.cpu0.iq.FU_type_0::IntAlu                29736     60.57%     60.57% # Type of FU issued
system.cpu0.iq.FU_type_0::IntMult                3646      7.43%     68.00% # Type of FU issued
system.cpu0.iq.FU_type_0::IntDiv                    0      0.00%     68.00% # Type of FU issued
system.cpu0.iq.FU_type_0::FloatAdd                  0      0.00%     68.00% # Type of FU issued
system.cpu0.iq.FU_type_0::FloatCmp                  0      0.00%     68.00% # Type of FU issued
system.cpu0.iq.FU_type_0::FloatCvt                  0      0.00%     68.00% # Type of FU issued
system.cpu0.iq.FU_type_0::FloatMult                 0      0.00%     68.00% # Type of FU issued
system.cpu0.iq.FU_type_0::FloatDiv                  0      0.00%     68.00% # Type of FU issued
system.cpu0.iq.FU_type_0::FloatSqrt                 0      0.00%     68.00% # Type of FU issued
system.cpu0.iq.FU_type_0::SimdAdd                   0      0.00%     68.00% # Type of FU issued
system.cpu0.iq.FU_type_0::SimdAddAcc                0      0.00%     68.00% # Type of FU issued
system.cpu0.iq.FU_type_0::SimdAlu                   0      0.00%     68.00% # Type of FU issued
system.cpu0.iq.FU_type_0::SimdCmp                   0      0.00%     68.00% # Type of FU issued
system.cpu0.iq.FU_type_0::SimdCvt                   0      0.00%     68.00% # Type of FU issued
system.cpu0.iq.FU_type_0::SimdMisc                  0      0.00%     68.00% # Type of FU issued
system.cpu0.iq.FU_type_0::SimdMult                  0      0.00%     68.00% # Type of FU issued
system.cpu0.iq.FU_type_0::SimdMultAcc               0      0.00%     68.00% # Type of FU issued
system.cpu0.iq.FU_type_0::SimdShift                 0      0.00%     68.00% # Type of FU issued
system.cpu0.iq.FU_type_0::SimdShiftAcc              0      0.00%     68.00% # Type of FU issued
system.cpu0.iq.FU_type_0::SimdSqrt                  0      0.00%     68.00% # Type of FU issued
system.cpu0.iq.FU_type_0::SimdFloatAdd              0      0.00%     68.00% # Type of FU issued
system.cpu0.iq.FU_type_0::SimdFloatAlu              0      0.00%     68.00% # Type of FU issued
system.cpu0.iq.FU_type_0::SimdFloatCmp              0      0.00%     68.00% # Type of FU issued
system.cpu0.iq.FU_type_0::SimdFloatCvt              0      0.00%     68.00% # Type of FU issued
system.cpu0.iq.FU_type_0::SimdFloatDiv              0      0.00%     68.00% # Type of FU issued
system.cpu0.iq.FU_type_0::SimdFloatMisc             3      0.01%     68.00% # Type of FU issued
system.cpu0.iq.FU_type_0::SimdFloatMult             0      0.00%     68.00% # Type of FU issued
system.cpu0.iq.FU_type_0::SimdFloatMultAcc            0      0.00%     68.00% # Type of FU issued
system.cpu0.iq.FU_type_0::SimdFloatSqrt             0      0.00%     68.00% # Type of FU issued
system.cpu0.iq.FU_type_0::MemRead                8818     17.96%     85.96% # Type of FU issued
system.cpu0.iq.FU_type_0::MemWrite               6891     14.04%    100.00% # Type of FU issued
system.cpu0.iq.FU_type_0::IprAccess                 0      0.00%    100.00% # Type of FU issued
system.cpu0.iq.FU_type_0::InstPrefetch              0      0.00%    100.00% # Type of FU issued
system.cpu0.iq.FU_type_0::total                 49094                       # Type of FU issued
system.cpu0.iq.rate                          0.485200                       # Inst issue rate
system.cpu0.iq.fu_busy_cnt                          0                       # FU busy when requested
system.cpu0.iq.fu_busy_rate                         0                       # FU busy rate (busy events/executed inst)
system.cpu0.iq.int_inst_queue_reads            159377                       # Number of integer instruction queue reads
system.cpu0.iq.int_inst_queue_writes            87832                       # Number of integer instruction queue writes
system.cpu0.iq.int_inst_queue_wakeup_accesses        47916                       # Number of integer instruction queue wakeup accesses
system.cpu0.iq.fp_inst_queue_reads                 56                       # Number of floating instruction queue reads
system.cpu0.iq.fp_inst_queue_writes                28                       # Number of floating instruction queue writes
system.cpu0.iq.fp_inst_queue_wakeup_accesses           28                       # Number of floating instruction queue wakeup accesses
system.cpu0.iq.int_alu_accesses                 49066                       # Number of integer alu accesses
system.cpu0.iq.fp_alu_accesses                     28                       # Number of floating point alu accesses
system.cpu0.iew.lsq.thread0.forwLoads              62                       # Number of loads that had data forwarded from stores
system.cpu0.iew.lsq.thread0.invAddrLoads            0                       # Number of loads ignored due to an invalid address
system.cpu0.iew.lsq.thread0.squashedLoads         4226                       # Number of loads squashed
system.cpu0.iew.lsq.thread0.ignoredResponses            3                       # Number of memory responses ignored because the instruction is squashed
system.cpu0.iew.lsq.thread0.memOrderViolation           35                       # Number of memory ordering violations
system.cpu0.iew.lsq.thread0.squashedStores         2116                       # Number of stores squashed
system.cpu0.iew.lsq.thread0.invAddrSwpfs            0                       # Number of software prefetches ignored due to an invalid address
system.cpu0.iew.lsq.thread0.blockedLoads            0                       # Number of blocked loads due to partial load-store forwarding
system.cpu0.iew.lsq.thread0.rescheduledLoads           30                       # Number of loads that were rescheduled
system.cpu0.iew.lsq.thread0.cacheBlocked           59                       # Number of times an access to memory failed due to the cache being blocked
system.cpu0.iew.iewIdleCycles                       0                       # Number of cycles IEW is idle
system.cpu0.iew.iewSquashCycles                   778                       # Number of cycles IEW is squashing
system.cpu0.iew.iewBlockCycles                   3031                       # Number of cycles IEW is blocking
system.cpu0.iew.iewUnblockCycles                  448                       # Number of cycles IEW is unblocking
system.cpu0.iew.iewDispatchedInsts              66168                       # Number of instructions dispatched to IQ
system.cpu0.iew.iewDispSquashedInsts              101                       # Number of squashed instructions skipped by dispatch
system.cpu0.iew.iewDispLoadInsts                11599                       # Number of dispatched load instructions
system.cpu0.iew.iewDispStoreInsts                8647                       # Number of dispatched store instructions
system.cpu0.iew.iewDispNonSpecInsts               124                       # Number of dispatched non-speculative instructions
system.cpu0.iew.iewIQFullEvents                    16                       # Number of times the IQ has become full, causing a stall
system.cpu0.iew.iewLSQFullEvents                  429                       # Number of times the LSQ has become full, causing a stall
system.cpu0.iew.memOrderViolationEvents            35                       # Number of memory order violations
system.cpu0.iew.predictedTakenIncorrect           214                       # Number of branches that were predicted taken incorrectly
system.cpu0.iew.predictedNotTakenIncorrect          554                       # Number of branches that were predicted not taken incorrectly
system.cpu0.iew.branchMispredicts                 768                       # Number of branch mispredicts detected at execute
system.cpu0.iew.iewExecutedInsts                48572                       # Number of executed instructions
system.cpu0.iew.iewExecLoadInsts                 8571                       # Number of load instructions executed
system.cpu0.iew.iewExecSquashedInsts              522                       # Number of squashed instructions skipped in execute
system.cpu0.iew.exec_swp                            0                       # number of swp insts executed
system.cpu0.iew.exec_nop                            7                       # number of nop insts executed
system.cpu0.iew.exec_refs                       15340                       # number of memory reference insts executed
system.cpu0.iew.exec_branches                    5623                       # Number of branches executed
system.cpu0.iew.exec_stores                      6769                       # Number of stores executed
system.cpu0.iew.exec_rate                    0.480041                       # Inst execution rate
system.cpu0.iew.wb_sent                         48108                       # cumulative count of insts sent to commit
system.cpu0.iew.wb_count                        47944                       # cumulative count of insts written-back
system.cpu0.iew.wb_producers                    32370                       # num instructions producing a value
system.cpu0.iew.wb_consumers                    69478                       # num instructions consuming a value
system.cpu0.iew.wb_penalized                        0                       # number of instrctions required to write to 'other' IQ
system.cpu0.iew.wb_rate                      0.473835                       # insts written-back per cycle
system.cpu0.iew.wb_fanout                    0.465903                       # average fanout of values written-back
system.cpu0.iew.wb_penalized_rate                   0                       # fraction of instructions written-back that wrote to 'other' IQ
system.cpu0.commit.commitSquashedInsts          21674                       # The number of squashed insts skipped by commit
system.cpu0.commit.commitNonSpecStalls            188                       # The number of times commit has been forced to stall to communicate backwards
system.cpu0.commit.branchMispredicts              732                       # The number of times a branch was mispredicted
system.cpu0.commit.committed_per_cycle::samples        55958                       # Number of insts commited each cycle
system.cpu0.commit.committed_per_cycle::mean     0.795186                       # Number of insts commited each cycle
system.cpu0.commit.committed_per_cycle::stdev     1.572441                       # Number of insts commited each cycle
system.cpu0.commit.committed_per_cycle::underflows            0      0.00%      0.00% # Number of insts commited each cycle
system.cpu0.commit.committed_per_cycle::0        37329     66.71%     66.71% # Number of insts commited each cycle
system.cpu0.commit.committed_per_cycle::1         6666     11.91%     78.62% # Number of insts commited each cycle
system.cpu0.commit.committed_per_cycle::2         7853     14.03%     92.66% # Number of insts commited each cycle
system.cpu0.commit.committed_per_cycle::3         1220      2.18%     94.84% # Number of insts commited each cycle
system.cpu0.commit.committed_per_cycle::4          448      0.80%     95.64% # Number of insts commited each cycle
system.cpu0.commit.committed_per_cycle::5          471      0.84%     96.48% # Number of insts commited each cycle
system.cpu0.commit.committed_per_cycle::6          673      1.20%     97.68% # Number of insts commited each cycle
system.cpu0.commit.committed_per_cycle::7          104      0.19%     97.87% # Number of insts commited each cycle
system.cpu0.commit.committed_per_cycle::8         1194      2.13%    100.00% # Number of insts commited each cycle
system.cpu0.commit.committed_per_cycle::overflows            0      0.00%    100.00% # Number of insts commited each cycle
system.cpu0.commit.committed_per_cycle::min_value            0                       # Number of insts commited each cycle
system.cpu0.commit.committed_per_cycle::max_value            8                       # Number of insts commited each cycle
system.cpu0.commit.committed_per_cycle::total        55958                       # Number of insts commited each cycle
system.cpu0.commit.committedInsts               39067                       # Number of instructions committed
system.cpu0.commit.committedOps                 44497                       # Number of ops (including micro ops) committed
system.cpu0.commit.swp_count                        0                       # Number of s/w prefetches committed
system.cpu0.commit.refs                         13904                       # Number of memory references committed
system.cpu0.commit.loads                         7373                       # Number of loads committed
system.cpu0.commit.membars                        113                       # Number of memory barriers committed
system.cpu0.commit.branches                      4959                       # Number of branches committed
system.cpu0.commit.fp_insts                        28                       # Number of committed floating point instructions.
system.cpu0.commit.int_insts                    40041                       # Number of committed integer instructions.
system.cpu0.commit.function_calls                 290                       # Number of function calls committed.
system.cpu0.commit.op_class_0::No_OpClass            0      0.00%      0.00% # Class of committed instruction
system.cpu0.commit.op_class_0::IntAlu           26980     60.63%     60.63% # Class of committed instruction
system.cpu0.commit.op_class_0::IntMult           3610      8.11%     68.75% # Class of committed instruction
system.cpu0.commit.op_class_0::IntDiv               0      0.00%     68.75% # Class of committed instruction
system.cpu0.commit.op_class_0::FloatAdd             0      0.00%     68.75% # Class of committed instruction
system.cpu0.commit.op_class_0::FloatCmp             0      0.00%     68.75% # Class of committed instruction
system.cpu0.commit.op_class_0::FloatCvt             0      0.00%     68.75% # Class of committed instruction
system.cpu0.commit.op_class_0::FloatMult            0      0.00%     68.75% # Class of committed instruction
system.cpu0.commit.op_class_0::FloatDiv             0      0.00%     68.75% # Class of committed instruction
system.cpu0.commit.op_class_0::FloatSqrt            0      0.00%     68.75% # Class of committed instruction
system.cpu0.commit.op_class_0::SimdAdd              0      0.00%     68.75% # Class of committed instruction
system.cpu0.commit.op_class_0::SimdAddAcc            0      0.00%     68.75% # Class of committed instruction
system.cpu0.commit.op_class_0::SimdAlu              0      0.00%     68.75% # Class of committed instruction
system.cpu0.commit.op_class_0::SimdCmp              0      0.00%     68.75% # Class of committed instruction
system.cpu0.commit.op_class_0::SimdCvt              0      0.00%     68.75% # Class of committed instruction
system.cpu0.commit.op_class_0::SimdMisc             0      0.00%     68.75% # Class of committed instruction
system.cpu0.commit.op_class_0::SimdMult             0      0.00%     68.75% # Class of committed instruction
system.cpu0.commit.op_class_0::SimdMultAcc            0      0.00%     68.75% # Class of committed instruction
system.cpu0.commit.op_class_0::SimdShift            0      0.00%     68.75% # Class of committed instruction
system.cpu0.commit.op_class_0::SimdShiftAcc            0      0.00%     68.75% # Class of committed instruction
system.cpu0.commit.op_class_0::SimdSqrt             0      0.00%     68.75% # Class of committed instruction
system.cpu0.commit.op_class_0::SimdFloatAdd            0      0.00%     68.75% # Class of committed instruction
system.cpu0.commit.op_class_0::SimdFloatAlu            0      0.00%     68.75% # Class of committed instruction
system.cpu0.commit.op_class_0::SimdFloatCmp            0      0.00%     68.75% # Class of committed instruction
system.cpu0.commit.op_class_0::SimdFloatCvt            0      0.00%     68.75% # Class of committed instruction
system.cpu0.commit.op_class_0::SimdFloatDiv            0      0.00%     68.75% # Class of committed instruction
system.cpu0.commit.op_class_0::SimdFloatMisc            3      0.01%     68.75% # Class of committed instruction
system.cpu0.commit.op_class_0::SimdFloatMult            0      0.00%     68.75% # Class of committed instruction
system.cpu0.commit.op_class_0::SimdFloatMultAcc            0      0.00%     68.75% # Class of committed instruction
system.cpu0.commit.op_class_0::SimdFloatSqrt            0      0.00%     68.75% # Class of committed instruction
system.cpu0.commit.op_class_0::MemRead           7373     16.57%     85.32% # Class of committed instruction
system.cpu0.commit.op_class_0::MemWrite          6531     14.68%    100.00% # Class of committed instruction
system.cpu0.commit.op_class_0::IprAccess            0      0.00%    100.00% # Class of committed instruction
system.cpu0.commit.op_class_0::InstPrefetch            0      0.00%    100.00% # Class of committed instruction
system.cpu0.commit.op_class_0::total            44497                       # Class of committed instruction
system.cpu0.commit.bw_lim_events                 1194                       # number cycles where commit BW limit reached
[...]
system.l2.overall_mshr_miss_latency::cpu1.inst      1091500                       # number of overall MSHR miss cycles
system.l2.overall_mshr_miss_latency::cpu1.data       485750                       # number of overall MSHR miss cycles
system.l2.overall_mshr_miss_latency::cpu2.inst       295500                       # number of overall MSHR miss cycles
system.l2.overall_mshr_miss_latency::cpu2.data       347000                       # number of overall MSHR miss cycles
system.l2.overall_mshr_miss_latency::cpu3.inst       299000                       # number of overall MSHR miss cycles
system.l2.overall_mshr_miss_latency::cpu3.data       426750                       # number of overall MSHR miss cycles
system.l2.overall_mshr_miss_latency::total     58522750                       # number of overall MSHR miss cycles
system.l2.ReadReq_mshr_miss_rate::cpu0.inst     0.844884                       # mshr miss rate for ReadReq accesses
system.l2.ReadReq_mshr_miss_rate::cpu0.data     0.660606                       # mshr miss rate for ReadReq accesses
system.l2.ReadReq_mshr_miss_rate::cpu1.inst     0.263158                       # mshr miss rate for ReadReq accesses
system.l2.ReadReq_mshr_miss_rate::cpu1.data     0.066667                       # mshr miss rate for ReadReq accesses
system.l2.ReadReq_mshr_miss_rate::cpu2.inst     0.094340                       # mshr miss rate for ReadReq accesses
system.l2.ReadReq_mshr_miss_rate::cpu3.inst     0.054545                       # mshr miss rate for ReadReq accesses
system.l2.ReadReq_mshr_miss_rate::cpu3.data     0.083333                       # mshr miss rate for ReadReq accesses
system.l2.ReadReq_mshr_miss_rate::total      0.662564                       # mshr miss rate for ReadReq accesses
system.l2.UpgradeReq_mshr_miss_rate::cpu0.data     0.777778                       # mshr miss rate for UpgradeReq accesses
system.l2.UpgradeReq_mshr_miss_rate::total     0.777778                       # mshr miss rate for UpgradeReq accesses
system.l2.SCUpgradeReq_mshr_miss_rate::cpu0.data            1                       # mshr miss rate for SCUpgradeReq accesses
system.l2.SCUpgradeReq_mshr_miss_rate::cpu2.data            1                       # mshr miss rate for SCUpgradeReq accesses
system.l2.SCUpgradeReq_mshr_miss_rate::total            1                       # mshr miss rate for SCUpgradeReq accesses
system.l2.ReadExReq_mshr_miss_rate::cpu0.data     0.987395                       # mshr miss rate for ReadExReq accesses
system.l2.ReadExReq_mshr_miss_rate::cpu1.data            1                       # mshr miss rate for ReadExReq accesses
system.l2.ReadExReq_mshr_miss_rate::cpu2.data     0.800000                       # mshr miss rate for ReadExReq accesses
system.l2.ReadExReq_mshr_miss_rate::cpu3.data     0.800000                       # mshr miss rate for ReadExReq accesses
system.l2.ReadExReq_mshr_miss_rate::total     0.980159                       # mshr miss rate for ReadExReq accesses
system.l2.demand_mshr_miss_rate::cpu0.inst     0.844884                       # mshr miss rate for demand accesses
system.l2.demand_mshr_miss_rate::cpu0.data     0.853598                       # mshr miss rate for demand accesses
system.l2.demand_mshr_miss_rate::cpu1.inst     0.263158                       # mshr miss rate for demand accesses
system.l2.demand_mshr_miss_rate::cpu1.data     0.263158                       # mshr miss rate for demand accesses
system.l2.demand_mshr_miss_rate::cpu2.inst     0.094340                       # mshr miss rate for demand accesses
system.l2.demand_mshr_miss_rate::cpu2.data     0.235294                       # mshr miss rate for demand accesses
system.l2.demand_mshr_miss_rate::cpu3.inst     0.054545                       # mshr miss rate for demand accesses
system.l2.demand_mshr_miss_rate::cpu3.data     0.294118                       # mshr miss rate for demand accesses
system.l2.demand_mshr_miss_rate::total       0.727791                       # mshr miss rate for demand accesses
system.l2.overall_mshr_miss_rate::cpu0.inst     0.844884                       # mshr miss rate for overall accesses
system.l2.overall_mshr_miss_rate::cpu0.data     0.853598                       # mshr miss rate for overall accesses
system.l2.overall_mshr_miss_rate::cpu1.inst     0.263158                       # mshr miss rate for overall accesses
system.l2.overall_mshr_miss_rate::cpu1.data     0.263158                       # mshr miss rate for overall accesses
system.l2.overall_mshr_miss_rate::cpu2.inst     0.094340                       # mshr miss rate for overall accesses
system.l2.overall_mshr_miss_rate::cpu2.data     0.235294                       # mshr miss rate for overall accesses
system.l2.overall_mshr_miss_rate::cpu3.inst     0.054545                       # mshr miss rate for overall accesses
system.l2.overall_mshr_miss_rate::cpu3.data     0.294118                       # mshr miss rate for overall accesses
system.l2.overall_mshr_miss_rate::total      0.727791                       # mshr miss rate for overall accesses
system.l2.ReadReq_avg_mshr_miss_latency::cpu0.inst 64912.597656                       # average ReadReq mshr miss latency
system.l2.ReadReq_avg_mshr_miss_latency::cpu0.data 67786.697248                       # average ReadReq mshr miss latency
system.l2.ReadReq_avg_mshr_miss_latency::cpu1.inst 72766.666667                       # average ReadReq mshr miss latency
system.l2.ReadReq_avg_mshr_miss_latency::cpu1.data        70500                       # average ReadReq mshr miss latency
system.l2.ReadReq_avg_mshr_miss_latency::cpu2.inst        59100                       # average ReadReq mshr miss latency
system.l2.ReadReq_avg_mshr_miss_latency::cpu3.inst 99666.666667                       # average ReadReq mshr miss latency
system.l2.ReadReq_avg_mshr_miss_latency::cpu3.data        63500                       # average ReadReq mshr miss latency
system.l2.ReadReq_avg_mshr_miss_latency::total 65702.786378                       # average ReadReq mshr miss latency
system.l2.UpgradeReq_avg_mshr_miss_latency::cpu0.data 17858.142857                       # average UpgradeReq mshr miss latency
system.l2.UpgradeReq_avg_mshr_miss_latency::total 17858.142857                       # average UpgradeReq mshr miss latency
system.l2.SCUpgradeReq_avg_mshr_miss_latency::cpu0.data        18001                       # average SCUpgradeReq mshr miss latency
system.l2.SCUpgradeReq_avg_mshr_miss_latency::cpu2.data        18001                       # average SCUpgradeReq mshr miss latency
system.l2.SCUpgradeReq_avg_mshr_miss_latency::total        18001                       # average SCUpgradeReq mshr miss latency
system.l2.ReadExReq_avg_mshr_miss_latency::cpu0.data 63630.851064                       # average ReadExReq mshr miss latency
system.l2.ReadExReq_avg_mshr_miss_latency::cpu1.data 103812.500000                       # average ReadExReq mshr miss latency
system.l2.ReadExReq_avg_mshr_miss_latency::cpu2.data        86750                       # average ReadExReq mshr miss latency
system.l2.ReadExReq_avg_mshr_miss_latency::cpu3.data 90812.500000                       # average ReadExReq mshr miss latency
system.l2.ReadExReq_avg_mshr_miss_latency::total 65096.153846                       # average ReadExReq mshr miss latency
system.l2.demand_avg_mshr_miss_latency::cpu0.inst 64912.597656                       # average overall mshr miss latency
system.l2.demand_avg_mshr_miss_latency::cpu0.data 64947.674419                       # average overall mshr miss latency
system.l2.demand_avg_mshr_miss_latency::cpu1.inst 72766.666667                       # average overall mshr miss latency
system.l2.demand_avg_mshr_miss_latency::cpu1.data        97150                       # average overall mshr miss latency
system.l2.demand_avg_mshr_miss_latency::cpu2.inst        59100                       # average overall mshr miss latency
system.l2.demand_avg_mshr_miss_latency::cpu2.data        86750                       # average overall mshr miss latency
system.l2.demand_avg_mshr_miss_latency::cpu3.inst 99666.666667                       # average overall mshr miss latency
system.l2.demand_avg_mshr_miss_latency::cpu3.data        85350                       # average overall mshr miss latency
system.l2.demand_avg_mshr_miss_latency::total 65534.994401                       # average overall mshr miss latency
system.l2.overall_avg_mshr_miss_latency::cpu0.inst 64912.597656                       # average overall mshr miss latency
system.l2.overall_avg_mshr_miss_latency::cpu0.data 64947.674419                       # average overall mshr miss latency
system.l2.overall_avg_mshr_miss_latency::cpu1.inst 72766.666667                       # average overall mshr miss latency
system.l2.overall_avg_mshr_miss_latency::cpu1.data        97150                       # average overall mshr miss latency
system.l2.overall_avg_mshr_miss_latency::cpu2.inst        59100                       # average overall mshr miss latency
system.l2.overall_avg_mshr_miss_latency::cpu2.data        86750                       # average overall mshr miss latency
system.l2.overall_avg_mshr_miss_latency::cpu3.inst 99666.666667                       # average overall mshr miss latency
system.l2.overall_avg_mshr_miss_latency::cpu3.data        85350                       # average overall mshr miss latency
system.l2.overall_avg_mshr_miss_latency::total 65534.994401                       # average overall mshr miss latency
system.l2.no_allocate_misses                        0                       # Number of misses that were no-allocate
system.membus.trans_dist::ReadReq                 645                       # Transaction distribution
system.membus.trans_dist::ReadResp                644                       # Transaction distribution
system.membus.trans_dist::UpgradeReq               12                       # Transaction distribution
system.membus.trans_dist::SCUpgradeReq             10                       # Transaction distribution
system.membus.trans_dist::UpgradeResp               9                       # Transaction distribution
system.membus.trans_dist::ReadExReq               247                       # Transaction distribution
system.membus.trans_dist::ReadExResp              247                       # Transaction distribution
system.membus.pkt_count_system.l2.mem_side::system.mem_ctrls.port         1814                       # Packet count per connected master and slave (bytes)
system.membus.pkt_count::total                   1814                       # Packet count per connected master and slave (bytes)
system.membus.pkt_size_system.l2.mem_side::system.mem_ctrls.port        57024                       # Cumulative packet size per connected master and slave (bytes)
system.membus.pkt_size::total                   57024                       # Cumulative packet size per connected master and slave (bytes)
system.membus.snoops                               13                       # Total snoops (count)
system.membus.snoop_fanout::samples               914                       # Request fanout histogram
system.membus.snoop_fanout::mean                    0                       # Request fanout histogram
system.membus.snoop_fanout::stdev                   0                       # Request fanout histogram
system.membus.snoop_fanout::underflows              0      0.00%      0.00% # Request fanout histogram
system.membus.snoop_fanout::0                     914    100.00%    100.00% # Request fanout histogram
system.membus.snoop_fanout::1                       0      0.00%    100.00% # Request fanout histogram
system.membus.snoop_fanout::overflows               0      0.00%    100.00% # Request fanout histogram
system.membus.snoop_fanout::min_value               0                       # Request fanout histogram
system.membus.snoop_fanout::max_value               0                       # Request fanout histogram
system.membus.snoop_fanout::total                 914                       # Request fanout histogram
system.membus.reqLayer0.occupancy             1100000                       # Layer occupancy (ticks)
system.membus.reqLayer0.utilization               2.2                       # Layer utilization (%)
system.membus.respLayer1.occupancy            4737741                       # Layer occupancy (ticks)
system.membus.respLayer1.utilization              9.4                       # Layer utilization (%)
system.tol2bus.trans_dist::ReadReq               1169                       # Transaction distribution
system.tol2bus.trans_dist::ReadResp              1167                       # Transaction distribution
system.tol2bus.trans_dist::Writeback               27                       # Transaction distribution
system.tol2bus.trans_dist::UpgradeReq              14                       # Transaction distribution
system.tol2bus.trans_dist::SCUpgradeReq            10                       # Transaction distribution
system.tol2bus.trans_dist::UpgradeResp             24                       # Transaction distribution
system.tol2bus.trans_dist::ReadExReq              284                       # Transaction distribution
system.tol2bus.trans_dist::ReadExResp             284                       # Transaction distribution
system.tol2bus.pkt_count_system.cpu0.icache.mem_side::system.l2.cpu_side         1210                       # Packet count per connected master and slave (bytes)
system.tol2bus.pkt_count_system.cpu0.dcache.mem_side::system.l2.cpu_side          857                       # Packet count per connected master and slave (bytes)
system.tol2bus.pkt_count_system.cpu1.icache.mem_side::system.l2.cpu_side          114                       # Packet count per connected master and slave (bytes)
system.tol2bus.pkt_count_system.cpu1.dcache.mem_side::system.l2.cpu_side          116                       # Packet count per connected master and slave (bytes)
system.tol2bus.pkt_count_system.cpu2.icache.mem_side::system.l2.cpu_side          106                       # Packet count per connected master and slave (bytes)
system.tol2bus.pkt_count_system.cpu2.dcache.mem_side::system.l2.cpu_side          114                       # Packet count per connected master and slave (bytes)
system.tol2bus.pkt_count_system.cpu3.icache.mem_side::system.l2.cpu_side          110                       # Packet count per connected master and slave (bytes)
system.tol2bus.pkt_count_system.cpu3.dcache.mem_side::system.l2.cpu_side          113                       # Packet count per connected master and slave (bytes)
system.tol2bus.pkt_count::total                  2740                       # Packet count per connected master and slave (bytes)
system.tol2bus.pkt_size_system.cpu0.icache.mem_side::system.l2.cpu_side        38656                       # Cumulative packet size per connected master and slave (bytes)
system.tol2bus.pkt_size_system.cpu0.dcache.mem_side::system.l2.cpu_side        27520                       # Cumulative packet size per connected master and slave (bytes)
system.tol2bus.pkt_size_system.cpu1.icache.mem_side::system.l2.cpu_side         3648                       # Cumulative packet size per connected master and slave (bytes)
system.tol2bus.pkt_size_system.cpu1.dcache.mem_side::system.l2.cpu_side         1216                       # Cumulative packet size per connected master and slave (bytes)
system.tol2bus.pkt_size_system.cpu2.icache.mem_side::system.l2.cpu_side         3392                       # Cumulative packet size per connected master and slave (bytes)
system.tol2bus.pkt_size_system.cpu2.dcache.mem_side::system.l2.cpu_side         1088                       # Cumulative packet size per connected master and slave (bytes)
system.tol2bus.pkt_size_system.cpu3.icache.mem_side::system.l2.cpu_side         3520                       # Cumulative packet size per connected master and slave (bytes)
system.tol2bus.pkt_size_system.cpu3.dcache.mem_side::system.l2.cpu_side         1088                       # Cumulative packet size per connected master and slave (bytes)
system.tol2bus.pkt_size::total                  80128                       # Cumulative packet size per connected master and slave (bytes)
system.tol2bus.snoops                             239                       # Total snoops (count)
system.tol2bus.snoop_fanout::samples             1504                       # Request fanout histogram
system.tol2bus.snoop_fanout::mean                   7                       # Request fanout histogram
system.tol2bus.snoop_fanout::stdev                  0                       # Request fanout histogram
system.tol2bus.snoop_fanout::underflows             0      0.00%      0.00% # Request fanout histogram
system.tol2bus.snoop_fanout::0                      0      0.00%      0.00% # Request fanout histogram
system.tol2bus.snoop_fanout::1                      0      0.00%      0.00% # Request fanout histogram
system.tol2bus.snoop_fanout::2                      0      0.00%      0.00% # Request fanout histogram
system.tol2bus.snoop_fanout::3                      0      0.00%      0.00% # Request fanout histogram
system.tol2bus.snoop_fanout::4                      0      0.00%      0.00% # Request fanout histogram
system.tol2bus.snoop_fanout::5                      0      0.00%      0.00% # Request fanout histogram
system.tol2bus.snoop_fanout::6                      0      0.00%      0.00% # Request fanout histogram
system.tol2bus.snoop_fanout::7                   1504    100.00%    100.00% # Request fanout histogram
system.tol2bus.snoop_fanout::8                      0      0.00%    100.00% # Request fanout histogram
system.tol2bus.snoop_fanout::overflows              0      0.00%    100.00% # Request fanout histogram
system.tol2bus.snoop_fanout::min_value              7                       # Request fanout histogram
system.tol2bus.snoop_fanout::max_value              7                       # Request fanout histogram
system.tol2bus.snoop_fanout::total               1504                       # Request fanout histogram
system.tol2bus.reqLayer0.occupancy             779499                       # Layer occupancy (ticks)
system.tol2bus.reqLayer0.utilization              1.5                       # Layer utilization (%)
system.tol2bus.respLayer0.occupancy           1003992                       # Layer occupancy (ticks)
system.tol2bus.respLayer0.utilization             2.0                       # Layer utilization (%)
system.tol2bus.respLayer1.occupancy            686239                       # Layer occupancy (ticks)
system.tol2bus.respLayer1.utilization             1.4                       # Layer utilization (%)
system.tol2bus.respLayer4.occupancy             93224                       # Layer occupancy (ticks)
system.tol2bus.respLayer4.utilization             0.2                       # Layer utilization (%)
system.tol2bus.respLayer5.occupancy            144989                       # Layer occupancy (ticks)
system.tol2bus.respLayer5.utilization             0.3                       # Layer utilization (%)
system.tol2bus.respLayer8.occupancy             85722                       # Layer occupancy (ticks)
system.tol2bus.respLayer8.utilization             0.2                       # Layer utilization (%)
system.tol2bus.respLayer9.occupancy            139499                       # Layer occupancy (ticks)
system.tol2bus.respLayer9.utilization             0.3                       # Layer utilization (%)
system.tol2bus.respLayer12.occupancy            88718                       # Layer occupancy (ticks)
system.tol2bus.respLayer12.utilization            0.2                       # Layer utilization (%)
system.tol2bus.respLayer13.occupancy           141994                       # Layer occupancy (ticks)
system.tol2bus.respLayer13.utilization            0.3                       # Layer utilization (%)

---------- End Simulation Statistics   ----------
